Using: /opt/synopsys/hspice/hspice/T-2022.06-3/hspice/linux64/hspice pep.sp
 ****** PrimeSim HSPICE -- T-2022.06-3 linux64 (Aug 04 2022 7739753) ******
  Copyright (c) 1986 - 2025 by Synopsys, Inc. All Rights Reserved.
  This software and the associated documentation are proprietary
  to Synopsys, Inc. This software may only be used in accordance
  with the terms and conditions of a written license agreement with
  Synopsys, Inc. All other use, reproduction, or distribution of
  this software is strictly prohibited.
  Input File: pep.sp                                                            
  Command line options: /opt/synopsys/hspice/hspice/T-2022.06-3/hspice/linux64/hspice pep.sp
  Start time: Sun Apr  6 21:12:15 2025
 lic:  
 lic: FLEXlm: SDK_12.10 
 lic: USER:   cdeclercq            HOSTNAME: vlsicad.ecs.umass.edu 
 lic: HOSTID: 13ac8554             PID:      199866 
 lic: Using FLEXlm license file: 
 lic: 27020@vlsicad.ecs.umass.edu 
 lic: Checkout 1 hspice 
 lic: License/Maintenance for hspice will expire on 09-sep-2025/2023.12 
 lic: 1(in_use)/50(total) FLOATING license(s) on SERVER 27020@vlsicad.ecs.umass.edu 
 lic:   
 scientific notation:
 a=10**-18  f=10**-15  p=10**-12  n=10**-9  u=10**-6
 m=10**-3   k=10**3    x=10**6    g=10**9 
  **warning** (pep.sp:36) Global net name "gnd" in subckt pin list. The pin will be connected to the local net. Recommend to not use global net names in subckt pin lists.
1****** PrimeSim HSPICE -- T-2022.06-3 linux64 (Aug 04 2022 7739753) ******
 ******  
 * first line is treated as comment

 ****** circuit name directory
 circuit number to circuit name directory
   number circuitname                     definition         multiplier
        0 main circuit
        1 xi8.                            faabs              1.00 
        2 xi7.                            faabs              1.00 
        3 xi6.                            faabs              1.00 
        4 xi5.                            faabs              1.00 
        5 xi4.                            faabs              1.00 
        6 xi3.                            faabs              1.00 
        7 xi2.                            faabs              1.00 
        8 xi1.                            faabs              1.00 
        9 xi44.                           multiplier_ppl     1.00 
       10 xi45.                           and                1.00 
       11 xi46.                           and                1.00 
       12 xi47.                           and                1.00 
       13 xi48.                           and                1.00 
       14 xi49.                           and                1.00 
       15 xi50.                           and                1.00 
       16 xi51.                           and                1.00 
       17 xi52.                           and                1.00 
       18 xi35.                           flipflop           1.00 
       19 xi34.                           flipflop           1.00 
       20 xi33.                           flipflop           1.00 
       21 xi32.                           flipflop           1.00 
       22 xi31.                           flipflop           1.00 
       23 xi30.                           flipflop           1.00 
       24 xi29.                           flipflop           1.00 
       25 xi28.                           flipflop           1.00 
       26 xi8.xi0.                        full_adder         1.00 
       27 xi8.xi1.                        nand               1.00 
       28 xi8.xi2.                        flipflop           1.00 
       29 xi8.xi3.                        inv                1.00 
       30 xi7.xi0.                        full_adder         1.00 
       31 xi7.xi1.                        nand               1.00 
       32 xi7.xi2.                        flipflop           1.00 
       33 xi7.xi3.                        inv                1.00 
       34 xi6.xi0.                        full_adder         1.00 
       35 xi6.xi1.                        nand               1.00 
       36 xi6.xi2.                        flipflop           1.00 
       37 xi6.xi3.                        inv                1.00 
       38 xi5.xi0.                        full_adder         1.00 
       39 xi5.xi1.                        nand               1.00 
       40 xi5.xi2.                        flipflop           1.00 
       41 xi5.xi3.                        inv                1.00 
       42 xi4.xi0.                        full_adder         1.00 
       43 xi4.xi1.                        nand               1.00 
       44 xi4.xi2.                        flipflop           1.00 
       45 xi4.xi3.                        inv                1.00 
       46 xi3.xi0.                        full_adder         1.00 
       47 xi3.xi1.                        nand               1.00 
       48 xi3.xi2.                        flipflop           1.00 
       49 xi3.xi3.                        inv                1.00 
       50 xi2.xi0.                        full_adder         1.00 
       51 xi2.xi1.                        nand               1.00 
       52 xi2.xi2.                        flipflop           1.00 
       53 xi2.xi3.                        inv                1.00 
       54 xi1.xi0.                        full_adder         1.00 
       55 xi1.xi1.                        nand               1.00 
       56 xi1.xi2.                        flipflop           1.00 
       57 xi1.xi3.                        inv                1.00 
       58 xi44.xi23.                      and                1.00 
       59 xi44.xi15.                      and                1.00 
       60 xi44.xi14.                      and                1.00 
       61 xi44.xi13.                      and                1.00 
       62 xi44.xi7.                       and                1.00 
       63 xi44.xi5.                       and                1.00 
       64 xi44.xi4.                       and                1.00 
       65 xi44.xi2.                       and                1.00 
       66 xi44.xi1.                       and                1.00 
       67 xi44.xi0.                       and                1.00 
       68 xi44.xi22.                      nand               1.00 
       69 xi44.xi21.                      nand               1.00 
       70 xi44.xi20.                      nand               1.00 
       71 xi44.xi12.                      nand               1.00 
       72 xi44.xi6.                       nand               1.00 
       73 xi44.xi3.                       nand               1.00 
       74 xi44.xi31.                      half_adder         1.00 
       75 xi44.xi32.                      half_adder         1.00 
       76 xi44.xi30.                      half_adder         1.00 
       77 xi44.xi29.                      half_adder         1.00 
       78 xi44.xi28.                      full_adder         1.00 
       79 xi44.xi27.                      full_adder         1.00 
       80 xi44.xi26.                      full_adder         1.00 
       81 xi44.xi19.                      full_adder         1.00 
       82 xi44.xi18.                      full_adder         1.00 
       83 xi44.xi17.                      full_adder         1.00 
       84 xi44.xi11.                      full_adder         1.00 
       85 xi44.xi10.                      full_adder         1.00 
       86 xi44.xi9.                       full_adder         1.00 
       87 xi44.xi33.                      dreg8b             1.00 
       88 xi44.xi34.                      dreg5b             1.00 
       89 xi44.xi37.                      flipflop           1.00 
       90 xi44.xi36.                      flipflop           1.00 
       91 xi44.xi35.                      flipflop           1.00 
       92 xi35.xi0.                       inv                1.00 
       93 xi34.xi0.                       inv                1.00 
       94 xi33.xi0.                       inv                1.00 
       95 xi32.xi0.                       inv                1.00 
       96 xi31.xi0.                       inv                1.00 
       97 xi30.xi0.                       inv                1.00 
       98 xi29.xi0.                       inv                1.00 
       99 xi28.xi0.                       inv                1.00 
      100 xi8.xi0.xi10.                   nand               1.00 
      101 xi8.xi0.xi11.                   nand               1.00 
      102 xi8.xi0.xi9.                    nand               1.00 
      103 xi8.xi0.xi13.                   xor                1.00 
      104 xi8.xi0.xi12.                   xor                1.00 
      105 xi8.xi2.xi0.                    inv                1.00 
      106 xi7.xi0.xi10.                   nand               1.00 
      107 xi7.xi0.xi11.                   nand               1.00 
      108 xi7.xi0.xi9.                    nand               1.00 
      109 xi7.xi0.xi13.                   xor                1.00 
      110 xi7.xi0.xi12.                   xor                1.00 
      111 xi7.xi2.xi0.                    inv                1.00 
      112 xi6.xi0.xi10.                   nand               1.00 
      113 xi6.xi0.xi11.                   nand               1.00 
      114 xi6.xi0.xi9.                    nand               1.00 
      115 xi6.xi0.xi13.                   xor                1.00 
      116 xi6.xi0.xi12.                   xor                1.00 
      117 xi6.xi2.xi0.                    inv                1.00 
      118 xi5.xi0.xi10.                   nand               1.00 
      119 xi5.xi0.xi11.                   nand               1.00 
      120 xi5.xi0.xi9.                    nand               1.00 
      121 xi5.xi0.xi13.                   xor                1.00 
      122 xi5.xi0.xi12.                   xor                1.00 
      123 xi5.xi2.xi0.                    inv                1.00 
      124 xi4.xi0.xi10.                   nand               1.00 
      125 xi4.xi0.xi11.                   nand               1.00 
      126 xi4.xi0.xi9.                    nand               1.00 
      127 xi4.xi0.xi13.                   xor                1.00 
      128 xi4.xi0.xi12.                   xor                1.00 
      129 xi4.xi2.xi0.                    inv                1.00 
      130 xi3.xi0.xi10.                   nand               1.00 
      131 xi3.xi0.xi11.                   nand               1.00 
      132 xi3.xi0.xi9.                    nand               1.00 
      133 xi3.xi0.xi13.                   xor                1.00 
      134 xi3.xi0.xi12.                   xor                1.00 
      135 xi3.xi2.xi0.                    inv                1.00 
      136 xi2.xi0.xi10.                   nand               1.00 
      137 xi2.xi0.xi11.                   nand               1.00 
      138 xi2.xi0.xi9.                    nand               1.00 
      139 xi2.xi0.xi13.                   xor                1.00 
      140 xi2.xi0.xi12.                   xor                1.00 
      141 xi2.xi2.xi0.                    inv                1.00 
      142 xi1.xi0.xi10.                   nand               1.00 
      143 xi1.xi0.xi11.                   nand               1.00 
      144 xi1.xi0.xi9.                    nand               1.00 
      145 xi1.xi0.xi13.                   xor                1.00 
      146 xi1.xi0.xi12.                   xor                1.00 
      147 xi1.xi2.xi0.                    inv                1.00 
      148 xi44.xi31.xi0.                  and                1.00 
      149 xi44.xi31.xi1.                  xor                1.00 
      150 xi44.xi32.xi0.                  and                1.00 
      151 xi44.xi32.xi1.                  xor                1.00 
      152 xi44.xi30.xi0.                  and                1.00 
      153 xi44.xi30.xi1.                  xor                1.00 
      154 xi44.xi29.xi0.                  and                1.00 
      155 xi44.xi29.xi1.                  xor                1.00 
      156 xi44.xi28.xi10.                 nand               1.00 
      157 xi44.xi28.xi11.                 nand               1.00 
      158 xi44.xi28.xi9.                  nand               1.00 
      159 xi44.xi28.xi13.                 xor                1.00 
      160 xi44.xi28.xi12.                 xor                1.00 
      161 xi44.xi27.xi10.                 nand               1.00 
      162 xi44.xi27.xi11.                 nand               1.00 
      163 xi44.xi27.xi9.                  nand               1.00 
      164 xi44.xi27.xi13.                 xor                1.00 
      165 xi44.xi27.xi12.                 xor                1.00 
      166 xi44.xi26.xi10.                 nand               1.00 
      167 xi44.xi26.xi11.                 nand               1.00 
      168 xi44.xi26.xi9.                  nand               1.00 
      169 xi44.xi26.xi13.                 xor                1.00 
      170 xi44.xi26.xi12.                 xor                1.00 
      171 xi44.xi19.xi10.                 nand               1.00 
      172 xi44.xi19.xi11.                 nand               1.00 
      173 xi44.xi19.xi9.                  nand               1.00 
      174 xi44.xi19.xi13.                 xor                1.00 
      175 xi44.xi19.xi12.                 xor                1.00 
      176 xi44.xi18.xi10.                 nand               1.00 
      177 xi44.xi18.xi11.                 nand               1.00 
      178 xi44.xi18.xi9.                  nand               1.00 
      179 xi44.xi18.xi13.                 xor                1.00 
      180 xi44.xi18.xi12.                 xor                1.00 
      181 xi44.xi17.xi10.                 nand               1.00 
      182 xi44.xi17.xi11.                 nand               1.00 
      183 xi44.xi17.xi9.                  nand               1.00 
      184 xi44.xi17.xi13.                 xor                1.00 
      185 xi44.xi17.xi12.                 xor                1.00 
      186 xi44.xi11.xi10.                 nand               1.00 
      187 xi44.xi11.xi11.                 nand               1.00 
      188 xi44.xi11.xi9.                  nand               1.00 
      189 xi44.xi11.xi13.                 xor                1.00 
      190 xi44.xi11.xi12.                 xor                1.00 
      191 xi44.xi10.xi10.                 nand               1.00 
      192 xi44.xi10.xi11.                 nand               1.00 
      193 xi44.xi10.xi9.                  nand               1.00 
      194 xi44.xi10.xi13.                 xor                1.00 
      195 xi44.xi10.xi12.                 xor                1.00 
      196 xi44.xi9.xi10.                  nand               1.00 
      197 xi44.xi9.xi11.                  nand               1.00 
      198 xi44.xi9.xi9.                   nand               1.00 
      199 xi44.xi9.xi13.                  xor                1.00 
      200 xi44.xi9.xi12.                  xor                1.00 
      201 xi44.xi33.xi0.                  dreg5b             1.00 
      202 xi44.xi33.xi4.                  flipflop           1.00 
      203 xi44.xi33.xi5.                  flipflop           1.00 
      204 xi44.xi33.xi6.                  flipflop           1.00 
      205 xi44.xi34.xi9.                  flipflop           1.00 
      206 xi44.xi34.xi8.                  flipflop           1.00 
      207 xi44.xi34.xi7.                  flipflop           1.00 
      208 xi44.xi34.xi6.                  flipflop           1.00 
      209 xi44.xi34.xi5.                  flipflop           1.00 
      210 xi44.xi37.xi0.                  inv                1.00 
      211 xi44.xi36.xi0.                  inv                1.00 
      212 xi44.xi35.xi0.                  inv                1.00 
      213 xi8.xi0.xi13.xi2.               inv                1.00 
      214 xi8.xi0.xi13.xi3.               inv                1.00 
      215 xi8.xi0.xi12.xi2.               inv                1.00 
      216 xi8.xi0.xi12.xi3.               inv                1.00 
      217 xi7.xi0.xi13.xi2.               inv                1.00 
      218 xi7.xi0.xi13.xi3.               inv                1.00 
      219 xi7.xi0.xi12.xi2.               inv                1.00 
      220 xi7.xi0.xi12.xi3.               inv                1.00 
      221 xi6.xi0.xi13.xi2.               inv                1.00 
      222 xi6.xi0.xi13.xi3.               inv                1.00 
      223 xi6.xi0.xi12.xi2.               inv                1.00 
      224 xi6.xi0.xi12.xi3.               inv                1.00 
      225 xi5.xi0.xi13.xi2.               inv                1.00 
      226 xi5.xi0.xi13.xi3.               inv                1.00 
      227 xi5.xi0.xi12.xi2.               inv                1.00 
      228 xi5.xi0.xi12.xi3.               inv                1.00 
      229 xi4.xi0.xi13.xi2.               inv                1.00 
      230 xi4.xi0.xi13.xi3.               inv                1.00 
      231 xi4.xi0.xi12.xi2.               inv                1.00 
      232 xi4.xi0.xi12.xi3.               inv                1.00 
      233 xi3.xi0.xi13.xi2.               inv                1.00 
      234 xi3.xi0.xi13.xi3.               inv                1.00 
      235 xi3.xi0.xi12.xi2.               inv                1.00 
      236 xi3.xi0.xi12.xi3.               inv                1.00 
      237 xi2.xi0.xi13.xi2.               inv                1.00 
      238 xi2.xi0.xi13.xi3.               inv                1.00 
      239 xi2.xi0.xi12.xi2.               inv                1.00 
      240 xi2.xi0.xi12.xi3.               inv                1.00 
      241 xi1.xi0.xi13.xi2.               inv                1.00 
      242 xi1.xi0.xi13.xi3.               inv                1.00 
      243 xi1.xi0.xi12.xi2.               inv                1.00 
      244 xi1.xi0.xi12.xi3.               inv                1.00 
      245 xi44.xi31.xi1.xi2.              inv                1.00 
      246 xi44.xi31.xi1.xi3.              inv                1.00 
      247 xi44.xi32.xi1.xi2.              inv                1.00 
      248 xi44.xi32.xi1.xi3.              inv                1.00 
      249 xi44.xi30.xi1.xi2.              inv                1.00 
      250 xi44.xi30.xi1.xi3.              inv                1.00 
      251 xi44.xi29.xi1.xi2.              inv                1.00 
      252 xi44.xi29.xi1.xi3.              inv                1.00 
      253 xi44.xi28.xi13.xi2.             inv                1.00 
      254 xi44.xi28.xi13.xi3.             inv                1.00 
      255 xi44.xi28.xi12.xi2.             inv                1.00 
      256 xi44.xi28.xi12.xi3.             inv                1.00 
      257 xi44.xi27.xi13.xi2.             inv                1.00 
      258 xi44.xi27.xi13.xi3.             inv                1.00 
      259 xi44.xi27.xi12.xi2.             inv                1.00 
      260 xi44.xi27.xi12.xi3.             inv                1.00 
      261 xi44.xi26.xi13.xi2.             inv                1.00 
      262 xi44.xi26.xi13.xi3.             inv                1.00 
      263 xi44.xi26.xi12.xi2.             inv                1.00 
      264 xi44.xi26.xi12.xi3.             inv                1.00 
      265 xi44.xi19.xi13.xi2.             inv                1.00 
      266 xi44.xi19.xi13.xi3.             inv                1.00 
      267 xi44.xi19.xi12.xi2.             inv                1.00 
      268 xi44.xi19.xi12.xi3.             inv                1.00 
      269 xi44.xi18.xi13.xi2.             inv                1.00 
      270 xi44.xi18.xi13.xi3.             inv                1.00 
      271 xi44.xi18.xi12.xi2.             inv                1.00 
      272 xi44.xi18.xi12.xi3.             inv                1.00 
      273 xi44.xi17.xi13.xi2.             inv                1.00 
      274 xi44.xi17.xi13.xi3.             inv                1.00 
      275 xi44.xi17.xi12.xi2.             inv                1.00 
      276 xi44.xi17.xi12.xi3.             inv                1.00 
      277 xi44.xi11.xi13.xi2.             inv                1.00 
      278 xi44.xi11.xi13.xi3.             inv                1.00 
      279 xi44.xi11.xi12.xi2.             inv                1.00 
      280 xi44.xi11.xi12.xi3.             inv                1.00 
      281 xi44.xi10.xi13.xi2.             inv                1.00 
      282 xi44.xi10.xi13.xi3.             inv                1.00 
      283 xi44.xi10.xi12.xi2.             inv                1.00 
      284 xi44.xi10.xi12.xi3.             inv                1.00 
      285 xi44.xi9.xi13.xi2.              inv                1.00 
      286 xi44.xi9.xi13.xi3.              inv                1.00 
      287 xi44.xi9.xi12.xi2.              inv                1.00 
      288 xi44.xi9.xi12.xi3.              inv                1.00 
      289 xi44.xi33.xi0.xi9.              flipflop           1.00 
      290 xi44.xi33.xi0.xi8.              flipflop           1.00 
      291 xi44.xi33.xi0.xi7.              flipflop           1.00 
      292 xi44.xi33.xi0.xi6.              flipflop           1.00 
      293 xi44.xi33.xi0.xi5.              flipflop           1.00 
      294 xi44.xi33.xi4.xi0.              inv                1.00 
      295 xi44.xi33.xi5.xi0.              inv                1.00 
      296 xi44.xi33.xi6.xi0.              inv                1.00 
      297 xi44.xi34.xi9.xi0.              inv                1.00 
      298 xi44.xi34.xi8.xi0.              inv                1.00 
      299 xi44.xi34.xi7.xi0.              inv                1.00 
      300 xi44.xi34.xi6.xi0.              inv                1.00 
      301 xi44.xi34.xi5.xi0.              inv                1.00 
      302 xi44.xi33.xi0.xi9.xi0.          inv                1.00 
      303 xi44.xi33.xi0.xi8.xi0.          inv                1.00 
      304 xi44.xi33.xi0.xi7.xi0.          inv                1.00 
      305 xi44.xi33.xi0.xi6.xi0.          inv                1.00 
      306 xi44.xi33.xi0.xi5.xi0.          inv                1.00 


 circuit parameter definitions
  parameter          =  value 

     0:vdd_val                                                 =   1.1000       
     0:tris                                                    =  50.0000       
     0:tper                                                    = 500.0000       
     0:tfall                                                   =  50.0000       
     0:tpw                                                     = 200.0000       
     0:tdlay                                                   =   0.           




 constants  - tnom         kt           vt           gapsi        ni
            298.15000    4.1163e-21    25.69184m     1.11562    1.2565e+16 
 ******  
 * first line is treated as comment

 ****** mos   model parameters tnom=  25.000 temp=  25.000 ******
 Model file: /opt/cadence/gpdk045/gpdk045_v_6_0/models/hspice/g45n1svt.inc
 Model line:            3
 Model Name: g45n1svt  
 BSIM4 Model (Level 54)
    MOBMOD = 0
    BINUNIT = 1
    PARAMCHK = 1
    CAPMOD = 2
    DIOMOD = 1
    RDSMOD = 0
    TRNQSMOD = 0
    ACNQSMOD = 0
    RBODYMOD = 1
    RGATEMOD = 1
    PERMOD = 1
    GEOMOD = 1
    RGEOMOD = 0
    FNOIMOD = 1
    TNOIMOD = 0
    IGCMOD = 1
    IGBMOD = 1
    STIMOD = 0
    VERSION =      4 
    TOXREF = 1.14e-09 
    TOXE = 1.14e-09 
    TOXP =  1e-09 
    TOXM = 1.14e-09 
    DTOX = 1.4e-10 
    EPSROX =    3.9 
    CDSC =      0 
    CDSCB =      0 
    CDSCD =      0 
    CIT =      0 
    NFACTOR =    2.1 
    XJ = 1.98e-08 
    VSAT = 1.23e+05 
    A0 =      1 
    AGS =      0 
    A1 =      0 
    A2 =      1 
    AT = 3.3e+04 
    KETA =   0.04 
    NSUB =  6e+16 
    NDEP = 3.4e+18 
    NSD =  2e+20 
    NGATE =  3e+20 
    GAMMA1 =      0 
    GAMMA2 =      0 
    VBX =      0 
    VBM =     -3 
    XT = 1.55e-07 
    K1 =    0.4 
    KT1 =  -0.11 
    KT1L =      0 
    KT2 =  0.022 
    K2 =      0 
    K3 =      0 
    K3B =      0 
    LPE0 =      0 
    LPEB =      0 
    DVTP0 =  1e-10 
    DVTP1 =    0.1 
    W0 = 2.5e-06 
    DVT0 =      1 
    DVT1 =      2 
    DVT2 =      0 
    DVT0W =      0 
    DVT1W =      0 
    DVT2W =      0 
    DROUT =    0.5 
    DSUB =    0.1 
    VTH0 = 0.4106 
    EU =   1.67 
    UA =  6e-10 
    UA1 = 4.31e-09 
    UB = 1.2e-18 
    UB1 = 7.61e-18 
    UC =      0 
    UC1 = -5.6e-11 
    U0 =  0.045 
    UTE =   -1.5 
    VOFF =  -0.13 
    VOFFL =      0 
    MINV =   0.05 
    FPROUT =    0.2 
    PDITS =   0.08 
    PDITSD =   0.23 
    PDITSL = 2.3e+06 
    DELTA =   0.01 
    RDSW =    155 
    RDSWMIN =      0 
    RDWMIN =      0 
    RSWMIN =      0 
    RDW =     80 
    RSW =     80 
    PRWG =      0 
    PRWB =      0 
    PRT =      0 
    ETA0 =  0.006 
    ETAB =      0 
    PCLM =   0.02 
    PDIBLC1 =  0.001 
    PDIBLC2 =  0.001 
    PDIBLCB = -0.005 
    PSCBE1 = 8.14e+08 
    PSCBE2 =  1e-07 
    PVAG =  1e-20 
    WR =      1 
    DWG =      0 
    DWB =      0 
    XW =      0 
    XWREF =      0 
    XL = -2e-08 
    XLREF = -2e-08 
    B0 =      0 
    B1 =      0 
    ALPHA0 =  0.074 
    ALPHA1 =  0.005 
    AGIDL = 0.0002 
    BGIDL = 2.1e+09 
    CGIDL = 0.0002 
    PHIN =      0 
    EGIDL =    0.8 
    AIGC =   0.02 
    BIGC = 0.0027 
    CIGC =  0.002 
    AIGSD =   0.02 
    BIGSD = 0.0027 
    CIGSD =  0.002 
    AIGBACC =  0.012 
    BIGBACC = 0.0028 
    CIGBACC =  0.002 
    AIGBINV =  0.014 
    BIGBINV =  0.004 
    CIGBINV =  0.004 
    NIGC =      1 
    NIGBINV =      3 
    NIGBACC =      1 
    NTOX =      1 
    EIGBINV =    1.1 
    PIGCD =      1 
    POXEDGE =      1 
    XRCRG1 =     12 
    TNOIA =    1.5 
    TNOIB =    3.5 
    NTNOI =      1 
    XRCRG2 =      5 
    BETA0 =     30 
    IJTHDFWD =   0.01 
    IJTHSFWD =   0.01 
    IJTHDREV =  0.001 
    IJTHSREV =  0.001 
    XJBVD =      1 
    XJBVS =      1 
    BVD =     10 
    BVS =     10 
    VFB =  -0.55 
    GBMIN =  1e-10 
    RBDB =     15 
    RBPB =      5 
    RBSB =     15 
    RBPS =     15 
    RBPD =     15 
    CGSL = 2.653e-10 
    CGDL = 2.653e-10 
    CKAPPAS =   0.03 
    CKAPPAD =   0.03 
    CF = 1.289e-10 
    CLC =  1e-07 
    CLE =    0.6 
    DWC =  5e-09 
    DLC = 3.75e-09 
    DLCIG = 3.75e-09 
    DWJ =      0 
    VFBCV =     -1 
    ACDE =      1 
    MOIN =     15 
    NOFF =    0.9 
    VOFFCV =   0.02 
    DMCG =      0 
    DMCI =      0 
    DMDG =      0 
    DMCGT =      0 
    XGW =      0 
    XGL =      0 
    RSHG =    0.4 
    NGCON =      1 
    TCJ =  0.001 
    TPB =  0.005 
    TCJSW =  0.001 
    TPBSW =  0.005 
    TCJSWG =  0.001 
    TPBSWG =  0.005 
    SK0 =      0 
    SK1 =      0 
    SK2 =      0 
    SL =  2e-06 
    SW =  2e-06 
    K =      0 
    TNOM =  300.1 
    CGSO = 1.1e-10 
    CGDO = 1.1e-10 
    CGBO = 2.56e-11 
    XPART =      0 
    RSH =      5 
    JSS = 0.0001 
    JSWS =  1e-11 
    JSWGS =  1e-10 
    PBS =      1 
    MJS =    0.5 
    PBSWS =      1 
    MJSWS =   0.33 
    CJS = 0.0005 
    CJSWS =  5e-10 
    NJS =      1 
    PBSWGS =      1 
    MJSWGS =   0.33 
    CJSWGS =  3e-10 
    XTIS =      3 
    JSD = 0.0001 
    JSWD =  1e-11 
    JSWGD =  1e-10 
    PBD =      1 
    MJD =    0.5 
    PBSWD =      1 
    MJSWD =   0.33 
    CJD = 0.0005 
    CJSWD =  5e-10 
    NJD =      1 
    PBSWGD =      1 
    MJSWGD =   0.33 
    CJSWGD =  5e-10 
    XTID =      3 
    LMLT =      1 
    WMLT =      1 
    LINT = 3.75e-09 
    LL =      0 
    LLC =      0 
    LLN =      1 
    LW =      0 
    LWC =      0 
    LWN =      1 
    LWL =      0 
    LWLC =      0 
    LMIN =      0 
    LMAX =      1 
    WINT =  5e-09 
    WL =      0 
    WLC =      0 
    WLN =      1 
    WW =      0 
    WWC =      0 
    WWN =      1 
    WWL =      0 
    WWLC =      0 
    WMIN =      0 
    WMAX =      1 
    NOIA = 6.25e+41 
    NOIB = 3.125e+26 
    NOIC = 8.75e+09 
    EM = 4.1e+07 
    EF =      1 
    AF =      1 
    KF =      0 
    TRS =      0 
    TRD =      0 
 Model file: /opt/cadence/gpdk045/gpdk045_v_6_0/models/hspice/g45p1svt.inc
 Model line:            3
 Model Name: g45p1svt  
 BSIM4 Model (Level 54)
    MOBMOD = 0
    BINUNIT = 1
    PARAMCHK = 1
    CAPMOD = 2
    DIOMOD = 1
    RDSMOD = 0
    TRNQSMOD = 0
    ACNQSMOD = 0
    RBODYMOD = 1
    RGATEMOD = 1
    PERMOD = 1
    GEOMOD = 1
    RGEOMOD = 0
    FNOIMOD = 1
    TNOIMOD = 0
    IGCMOD = 1
    IGBMOD = 1
    STIMOD = 0
    VERSION =      4 
    TOXREF = 1.3e-09 
    TOXE = 1.26e-09 
    TOXP =  1e-09 
    TOXM = 1.26e-09 
    DTOX = 2.6e-10 
    EPSROX =    3.9 
    CDSC =      0 
    CDSCB =      0 
    CDSCD =      0 
    CIT =      0 
    NFACTOR =   2.22 
    XJ = 1.98e-08 
    VSAT = 6.2e+04 
    A0 =      1 
    AGS =  1e-20 
    A1 =      0 
    A2 =      1 
    AT = 3.3e+04 
    KETA = -0.047 
    NSUB =  6e+16 
    NDEP = 2.44e+18 
    NSD =  2e+20 
    NGATE =  2e+20 
    GAMMA1 =      0 
    GAMMA2 =      0 
    VBX =      0 
    VBM =     -3 
    XT = 1.55e-07 
    K1 =    0.4 
    KT1 =  -0.11 
    KT1L =      0 
    KT2 =  0.022 
    K2 =  -0.01 
    K3 =      0 
    K3B =      0 
    LPE0 =      0 
    LPEB =      0 
    DVTP0 =  1e-11 
    DVTP1 =   0.05 
    W0 = 2.5e-06 
    DVT0 =      1 
    DVT1 =      2 
    DVT2 = -0.032 
    DVT0W =      0 
    DVT1W =      0 
    DVT2W =      0 
    DROUT =   0.56 
    DSUB =    0.1 
    VTH0 = -0.3842 
    EU =      1 
    UA =  2e-09 
    UA1 = 4.31e-09 
    UB =  5e-19 
    UB1 = 7.61e-18 
    UC =      0 
    UC1 = -5.6e-11 
    U0 =   0.02 
    UTE =   -1.5 
    VOFF = -0.126 
    VOFFL =      0 
    MINV =   0.05 
    FPROUT =    0.2 
    PDITS =   0.08 
    PDITSD =   0.23 
    PDITSL = 2.3e+06 
    DELTA =   0.01 
    RDSW =    155 
    RDSWMIN =      0 
    RDWMIN =      0 
    RSWMIN =      0 
    RDW =     75 
    RSW =     75 
    PRWG =      0 
    PRWB =      0 
    PRT =      0 
    ETA0 = 0.0055 
    ETAB =      0 
    PCLM =   0.12 
    PDIBLC1 =  0.001 
    PDIBLC2 =  0.001 
    PDIBLCB = 3.4e-08 
    PSCBE1 = 8.14e+08 
    PSCBE2 = 9.58e-07 
    PVAG =  1e-20 
    WR =      1 
    DWG =      0 
    DWB =      0 
    XW =      0 
    XWREF =      0 
    XL = -2e-08 
    XLREF = -2e-08 
    B0 =      0 
    B1 =      0 
    ALPHA0 =  0.074 
    ALPHA1 =  0.005 
    AGIDL = 0.0002 
    BGIDL = 2.1e+09 
    CGIDL = 0.0002 
    PHIN =      0 
    EGIDL =    0.8 
    AIGC = 0.01069 
    BIGC = 0.001261 
    CIGC = 0.0008 
    AIGSD = 0.01069 
    BIGSD = 0.001261 
    CIGSD = 0.0008 
    AIGBACC =  0.012 
    BIGBACC = 0.0028 
    CIGBACC =  0.002 
    AIGBINV =  0.014 
    BIGBINV =  0.004 
    CIGBINV =  0.004 
    NIGC =      1 
    NIGBINV =      3 
    NIGBACC =      1 
    NTOX =      1 
    EIGBINV =    1.1 
    PIGCD =      1 
    POXEDGE =      1 
    XRCRG1 =     12 
    TNOIA =    1.5 
    TNOIB =    3.5 
    NTNOI =      1 
    XRCRG2 =      5 
    BETA0 =     30 
    IJTHDFWD =   0.01 
    IJTHSFWD =   0.01 
    IJTHDREV =  0.001 
    IJTHSREV =  0.001 
    XJBVD =      1 
    XJBVS =      1 
    BVD =     10 
    BVS =     10 
    VFB =   0.55 
    GBMIN =  1e-10 
    RBDB =     15 
    RBPB =      5 
    RBSB =     15 
    RBPS =     15 
    RBPD =     15 
    CGSL = 2.653e-10 
    CGDL = 2.653e-10 
    CKAPPAS =   0.03 
    CKAPPAD =   0.03 
    CF = 1.267e-10 
    CLC =  1e-07 
    CLE =    0.6 
    DWC =  5e-09 
    DLC = 3.75e-09 
    DLCIG = 3.75e-09 
    DWJ =      0 
    VFBCV =     -1 
    ACDE =      1 
    MOIN =     15 
    NOFF =    0.9 
    VOFFCV =   0.02 
    DMCG =      0 
    DMCI =      0 
    DMDG =      0 
    DMCGT =      0 
    XGW =      0 
    XGL =      0 
    RSHG =    0.4 
    NGCON =      1 
    TCJ =  0.001 
    TPB =  0.005 
    TCJSW =  0.001 
    TPBSW =  0.005 
    TCJSWG =  0.001 
    TPBSWG =  0.005 
    SK0 =      0 
    SK1 =      0 
    SK2 =      0 
    SL =  2e-06 
    SW =  2e-06 
    K =      0 
    TNOM =  300.1 
    CGSO = 1.1e-10 
    CGDO = 1.1e-10 
    CGBO = 2.56e-11 
    XPART =      0 
    RSH =      5 
    JSS = 0.0001 
    JSWS =  1e-11 
    JSWGS =  1e-10 
    PBS =      1 
    MJS =    0.5 
    PBSWS =      1 
    MJSWS =   0.33 
    CJS = 0.0005 
    CJSWS =  5e-10 
    NJS =      1 
    PBSWGS =      1 
    MJSWGS =   0.33 
    CJSWGS =  3e-10 
    XTIS =      3 
    JSD = 0.0001 
    JSWD =  1e-11 
    JSWGD =  1e-10 
    PBD =      1 
    MJD =    0.5 
    PBSWD =      1 
    MJSWD =   0.33 
    CJD = 0.0005 
    CJSWD =  5e-10 
    NJD =      1 
    PBSWGD =      1 
    MJSWGD =   0.33 
    CJSWGD =  5e-10 
    XTID =      3 
    LMLT =      1 
    WMLT =      1 
    LINT = 3.75e-09 
    LL =      0 
    LLC =      0 
    LLN =      1 
    LW =      0 
    LWC =      0 
    LWN =      1 
    LWL =      0 
    LWLC =      0 
    LMIN =      0 
    LMAX =      1 
    WINT =  5e-09 
    WL =      0 
    WLC =      0 
    WLN =      1 
    WW =      0 
    WWC =      0 
    WWN =      1 
    WWL =      0 
    WWLC =      0 
    WMIN =      0 
    WMAX =      1 
    NOIA = 6.188e+40 
    NOIB = 1.5e+25 
    NOIC = 8.75e+09 
    EM = 4.1e+07 
    EF =      1 
    AF =      1 
    KF =      0 
    TRS =      0 
    TRD =      0 
  **warning** (pep.sp:30) Both nodes of element vgnd are connected together; Line ignored.
  **info** (pep.sp:23) DC voltage reset to initial transient source value in source 0:vpulse. new dc=0.0000D+00
  **warning** (g45n1svt:xi45.mnm2 (pep.sp:113)) Warning:  Acde = 0.276941 may be too small in BSIM4 model with w=1.2e-07 l=4.5e-08.
 ******  
 * first line is treated as comment

 ****** circuit element summary tnom=  25.000 temp=  25.000 ******


 **** independent sources

     name         node1        node2      dc volt    ac mag    ac phase    type
  vpulse  phi               0                    0.         0.         0.      pulse
             initial value     0.     
             pulsed value.     1.1000 
             delay time...     0.     
             risetime.....    50.0000p
             falltime.....    50.0000p
             width........   200.0000p
             period.......   500.0000p

  vsupply  vdd               0                    1.1000     0.         0.      dc   


 **** mosfets


 **** BSIM4 Model (Level 54)
  
  
                                                                          
 element name       10:mnm2       10:mnm3       10:mnm4       10:mpm0     
 drain               0:net067     10:net14      10:net24      10:net14    
 gate               10:net14       0:rst         0:a0          0:rst      
 source              0:0          10:net24       0:0           0:vdd      
 bulk                0:0           0:0           0:0           0:vdd      
 model               0:g45n1svt    0:g45n1svt    0:g45n1svt    0:g45p1svt 
 w eff             110.0000n     230.0000n     230.0000n     230.0000n    
 l eff              17.5000n      17.5000n      17.5000n      17.5000n    
 rd eff              0.            0.            0.            0.         
 rs eff              0.            0.            0.            0.         
 cdsat              12.7102a      23.4075a      23.4075a      23.4075a    
 cssat              12.7102a      23.4075a      23.4075a      23.4075a    
 capbd             267.8632a     396.0064a     396.0064a     396.0064a    
 capbs             243.9112a     348.1024a     348.1024a     348.1024a    
 temp               25.0000       25.0000       25.0000       25.0000     
 aic                                                                      
 nf                  1.0000        1.0000        1.0000        1.0000     
 min                 0.            0.            0.            0.         
 rbdb               15.0000       15.0000       15.0000       15.0000     
 rbsb               15.0000       15.0000       15.0000       15.0000     
 rbpb                5.0000        5.0000        5.0000        5.0000     
 rbps               15.0000       15.0000       15.0000       15.0000     
 rbpd               15.0000       15.0000       15.0000       15.0000     
 trnqsmod            0.            0.            0.            0.         
 acnqsmod            0.            0.            0.            0.         
 rbodymod            1.0000        1.0000        1.0000        1.0000     
 rgatemod            1.0000        1.0000        1.0000        1.0000     
 geomod              1.0000        1.0000        1.0000        1.0000     
 rgeomod             0.            0.            0.            0.         
 delvto              0.            0.            0.            0.         
 mulu0               1.0000        1.0000        1.0000        1.0000     
 delk1               0.            0.            0.            0.         
 delnfct             0.            0.            0.            0.         
 deltox              0.            0.            0.            0.         
 sa                  0.            0.            0.            0.         
 sb                  0.            0.            0.            0.         
 sd                  0.            0.            0.            0.         
 saeff               0.            0.            0.            0.         
 sbeff               0.            0.            0.            0.         
 m                   1.0000        1.0000        1.0000        1.0000     
 w drawn           120.0000n     240.0000n     240.0000n     240.0000n    
 l drawn            45.0000n      45.0000n      45.0000n      45.0000n    
  
  
                                                                          
 element name       10:mpm1       10:mpm2       11:mnm2       11:mnm3     
 drain              10:net14       0:net067      0:net066     11:net14    
 gate                0:a0         10:net14      11:net14       0:rst      
 source              0:vdd         0:vdd         0:0          11:net24    
 bulk                0:vdd         0:vdd         0:0           0:0        
 model               0:g45p1svt    0:g45p1svt    0:g45n1svt    0:g45n1svt 
 w eff             230.0000n     230.0000n     110.0000n     230.0000n    
 l eff              17.5000n      17.5000n      17.5000n      17.5000n    
 rd eff              0.            0.            0.            0.         
 rs eff              0.            0.            0.            0.         
 cdsat              23.4075a      23.4075a      12.7102a      23.4075a    
 cssat              23.4075a      23.4075a      12.7102a      23.4075a    
 capbd             396.0064a     396.0064a     267.8632a     396.0064a    
 capbs             348.1024a     348.1024a     243.9112a     348.1024a    
 temp               25.0000       25.0000       25.0000       25.0000     
 aic                                                                      
 nf                  1.0000        1.0000        1.0000        1.0000     
 min                 0.            0.            0.            0.         
 rbdb               15.0000       15.0000       15.0000       15.0000     
 rbsb               15.0000       15.0000       15.0000       15.0000     
 rbpb                5.0000        5.0000        5.0000        5.0000     
 rbps               15.0000       15.0000       15.0000       15.0000     
 rbpd               15.0000       15.0000       15.0000       15.0000     
 trnqsmod            0.            0.            0.            0.         
 acnqsmod            0.            0.            0.            0.         
 rbodymod            1.0000        1.0000        1.0000        1.0000     
 rgatemod            1.0000        1.0000        1.0000        1.0000     
 geomod              1.0000        1.0000        1.0000        1.0000     
 rgeomod             0.            0.            0.            0.         
 delvto              0.            0.            0.            0.         
 mulu0               1.0000        1.0000        1.0000        1.0000     
 delk1               0.            0.            0.            0.         
 delnfct             0.            0.            0.            0.         
 deltox              0.            0.            0.            0.         
 sa                  0.            0.            0.            0.         
 sb                  0.            0.            0.            0.         
 sd                  0.            0.            0.            0.         
 saeff               0.            0.            0.            0.         
 sbeff               0.            0.            0.            0.         
 m                   1.0000        1.0000        1.0000        1.0000     
 w drawn           240.0000n     240.0000n     120.0000n     240.0000n    
 l drawn            45.0000n      45.0000n      45.0000n      45.0000n    
  
  
                                                                          
 element name       11:mnm4       11:mpm0       11:mpm1       11:mpm2     
 drain              11:net24      11:net14      11:net14       0:net066   
 gate                0:a1          0:rst         0:a1         11:net14    
 source              0:0           0:vdd         0:vdd         0:vdd      
 bulk                0:0           0:vdd         0:vdd         0:vdd      
 model               0:g45n1svt    0:g45p1svt    0:g45p1svt    0:g45p1svt 
 w eff             230.0000n     230.0000n     230.0000n     230.0000n    
 l eff              17.5000n      17.5000n      17.5000n      17.5000n    
 rd eff              0.            0.            0.            0.         
 rs eff              0.            0.            0.            0.         
 cdsat              23.4075a      23.4075a      23.4075a      23.4075a    
 cssat              23.4075a      23.4075a      23.4075a      23.4075a    
 capbd             396.0064a     396.0064a     396.0064a     396.0064a    
 capbs             348.1024a     348.1024a     348.1024a     348.1024a    
 temp               25.0000       25.0000       25.0000       25.0000     
 aic                                                                      
 nf                  1.0000        1.0000        1.0000        1.0000     
 min                 0.            0.            0.            0.         
 rbdb               15.0000       15.0000       15.0000       15.0000     
 rbsb               15.0000       15.0000       15.0000       15.0000     
 rbpb                5.0000        5.0000        5.0000        5.0000     
 rbps               15.0000       15.0000       15.0000       15.0000     
 rbpd               15.0000       15.0000       15.0000       15.0000     
 trnqsmod            0.            0.            0.            0.         
 acnqsmod            0.            0.            0.            0.         
 rbodymod            1.0000        1.0000        1.0000        1.0000     
 rgatemod            1.0000        1.0000        1.0000        1.0000     
 geomod              1.0000        1.0000        1.0000        1.0000     
 rgeomod             0.            0.            0.            0.         
 delvto              0.            0.            0.            0.         
 mulu0               1.0000        1.0000        1.0000        1.0000     
 delk1               0.            0.            0.            0.         
 delnfct             0.            0.            0.            0.         
 deltox              0.            0.            0.            0.         
 sa                  0.            0.            0.            0.         
 sb                  0.            0.            0.            0.         
 sd                  0.            0.            0.            0.         
 saeff               0.            0.            0.            0.         
 sbeff               0.            0.            0.            0.         
 m                   1.0000        1.0000        1.0000        1.0000     
 w drawn           240.0000n     240.0000n     240.0000n     240.0000n    
 l drawn            45.0000n      45.0000n      45.0000n      45.0000n    
  
  
                                                                          
 element name       12:mnm2       12:mnm3       12:mnm4       12:mpm0     
 drain               0:net065     12:net14      12:net24      12:net14    
 gate               12:net14       0:rst         0:a2          0:rst      
 source              0:0          12:net24       0:0           0:vdd      
 bulk                0:0           0:0           0:0           0:vdd      
 model               0:g45n1svt    0:g45n1svt    0:g45n1svt    0:g45p1svt 
 w eff             110.0000n     230.0000n     230.0000n     230.0000n    
 l eff              17.5000n      17.5000n      17.5000n      17.5000n    
 rd eff              0.            0.            0.            0.         
 rs eff              0.            0.            0.            0.         
 cdsat              12.7102a      23.4075a      23.4075a      23.4075a    
 cssat              12.7102a      23.4075a      23.4075a      23.4075a    
 capbd             267.8632a     396.0064a     396.0064a     396.0064a    
 capbs             243.9112a     348.1024a     348.1024a     348.1024a    
 temp               25.0000       25.0000       25.0000       25.0000     
 aic                                                                      
 nf                  1.0000        1.0000        1.0000        1.0000     
 min                 0.            0.            0.            0.         
 rbdb               15.0000       15.0000       15.0000       15.0000     
 rbsb               15.0000       15.0000       15.0000       15.0000     
 rbpb                5.0000        5.0000        5.0000        5.0000     
 rbps               15.0000       15.0000       15.0000       15.0000     
 rbpd               15.0000       15.0000       15.0000       15.0000     
 trnqsmod            0.            0.            0.            0.         
 acnqsmod            0.            0.            0.            0.         
 rbodymod            1.0000        1.0000        1.0000        1.0000     
 rgatemod            1.0000        1.0000        1.0000        1.0000     
 geomod              1.0000        1.0000        1.0000        1.0000     
 rgeomod             0.            0.            0.            0.         
 delvto              0.            0.            0.            0.         
 mulu0               1.0000        1.0000        1.0000        1.0000     
 delk1               0.            0.            0.            0.         
 delnfct             0.            0.            0.            0.         
 deltox              0.            0.            0.            0.         
 sa                  0.            0.            0.            0.         
 sb                  0.            0.            0.            0.         
 sd                  0.            0.            0.            0.         
 saeff               0.            0.            0.            0.         
 sbeff               0.            0.            0.            0.         
 m                   1.0000        1.0000        1.0000        1.0000     
 w drawn           120.0000n     240.0000n     240.0000n     240.0000n    
 l drawn            45.0000n      45.0000n      45.0000n      45.0000n    
  
  
                                                                          
 element name       12:mpm1       12:mpm2       13:mnm2       13:mnm3     
 drain              12:net14       0:net065      0:net064     13:net14    
 gate                0:a2         12:net14      13:net14       0:rst      
 source              0:vdd         0:vdd         0:0          13:net24    
 bulk                0:vdd         0:vdd         0:0           0:0        
 model               0:g45p1svt    0:g45p1svt    0:g45n1svt    0:g45n1svt 
 w eff             230.0000n     230.0000n     110.0000n     230.0000n    
 l eff              17.5000n      17.5000n      17.5000n      17.5000n    
 rd eff              0.            0.            0.            0.         
 rs eff              0.            0.            0.            0.         
 cdsat              23.4075a      23.4075a      12.7102a      23.4075a    
 cssat              23.4075a      23.4075a      12.7102a      23.4075a    
 capbd             396.0064a     396.0064a     267.8632a     396.0064a    
 capbs             348.1024a     348.1024a     243.9112a     348.1024a    
 temp               25.0000       25.0000       25.0000       25.0000     
 aic                                                                      
 nf                  1.0000        1.0000        1.0000        1.0000     
 min                 0.            0.            0.            0.         
 rbdb               15.0000       15.0000       15.0000       15.0000     
 rbsb               15.0000       15.0000       15.0000       15.0000     
 rbpb                5.0000        5.0000        5.0000        5.0000     
 rbps               15.0000       15.0000       15.0000       15.0000     
 rbpd               15.0000       15.0000       15.0000       15.0000     
 trnqsmod            0.            0.            0.            0.         
 acnqsmod            0.            0.            0.            0.         
 rbodymod            1.0000        1.0000        1.0000        1.0000     
 rgatemod            1.0000        1.0000        1.0000        1.0000     
 geomod              1.0000        1.0000        1.0000        1.0000     
 rgeomod             0.            0.            0.            0.         
 delvto              0.            0.            0.            0.         
 mulu0               1.0000        1.0000        1.0000        1.0000     
 delk1               0.            0.            0.            0.         
 delnfct             0.            0.            0.            0.         
 deltox              0.            0.            0.            0.         
 sa                  0.            0.            0.            0.         
 sb                  0.            0.            0.            0.         
 sd                  0.            0.            0.            0.         
 saeff               0.            0.            0.            0.         
 sbeff               0.            0.            0.            0.         
 m                   1.0000        1.0000        1.0000        1.0000     
 w drawn           240.0000n     240.0000n     120.0000n     240.0000n    
 l drawn            45.0000n      45.0000n      45.0000n      45.0000n    
  
  
                                                                          
 element name       13:mnm4       13:mpm0       13:mpm1       13:mpm2     
 drain              13:net24      13:net14      13:net14       0:net064   
 gate                0:a3          0:rst         0:a3         13:net14    
 source              0:0           0:vdd         0:vdd         0:vdd      
 bulk                0:0           0:vdd         0:vdd         0:vdd      
 model               0:g45n1svt    0:g45p1svt    0:g45p1svt    0:g45p1svt 
 w eff             230.0000n     230.0000n     230.0000n     230.0000n    
 l eff              17.5000n      17.5000n      17.5000n      17.5000n    
 rd eff              0.            0.            0.            0.         
 rs eff              0.            0.            0.            0.         
 cdsat              23.4075a      23.4075a      23.4075a      23.4075a    
 cssat              23.4075a      23.4075a      23.4075a      23.4075a    
 capbd             396.0064a     396.0064a     396.0064a     396.0064a    
 capbs             348.1024a     348.1024a     348.1024a     348.1024a    
 temp               25.0000       25.0000       25.0000       25.0000     
 aic                                                                      
 nf                  1.0000        1.0000        1.0000        1.0000     
 min                 0.            0.            0.            0.         
 rbdb               15.0000       15.0000       15.0000       15.0000     
 rbsb               15.0000       15.0000       15.0000       15.0000     
 rbpb                5.0000        5.0000        5.0000        5.0000     
 rbps               15.0000       15.0000       15.0000       15.0000     
 rbpd               15.0000       15.0000       15.0000       15.0000     
 trnqsmod            0.            0.            0.            0.         
 acnqsmod            0.            0.            0.            0.         
 rbodymod            1.0000        1.0000        1.0000        1.0000     
 rgatemod            1.0000        1.0000        1.0000        1.0000     
 geomod              1.0000        1.0000        1.0000        1.0000     
 rgeomod             0.            0.            0.            0.         
 delvto              0.            0.            0.            0.         
 mulu0               1.0000        1.0000        1.0000        1.0000     
 delk1               0.            0.            0.            0.         
 delnfct             0.            0.            0.            0.         
 deltox              0.            0.            0.            0.         
 sa                  0.            0.            0.            0.         
 sb                  0.            0.            0.            0.         
 sd                  0.            0.            0.            0.         
 saeff               0.            0.            0.            0.         
 sbeff               0.            0.            0.            0.         
 m                   1.0000        1.0000        1.0000        1.0000     
 w drawn           240.0000n     240.0000n     240.0000n     240.0000n    
 l drawn            45.0000n      45.0000n      45.0000n      45.0000n    
  
  
                                                                          
 element name       14:mnm2       14:mnm3       14:mnm4       14:mpm0     
 drain               0:net063     14:net14      14:net24      14:net14    
 gate               14:net14       0:rst         0:b0          0:rst      
 source              0:0          14:net24       0:0           0:vdd      
 bulk                0:0           0:0           0:0           0:vdd      
 model               0:g45n1svt    0:g45n1svt    0:g45n1svt    0:g45p1svt 
 w eff             110.0000n     230.0000n     230.0000n     230.0000n    
 l eff              17.5000n      17.5000n      17.5000n      17.5000n    
 rd eff              0.            0.            0.            0.         
 rs eff              0.            0.            0.            0.         
 cdsat              12.7102a      23.4075a      23.4075a      23.4075a    
 cssat              12.7102a      23.4075a      23.4075a      23.4075a    
 capbd             267.8632a     396.0064a     396.0064a     396.0064a    
 capbs             243.9112a     348.1024a     348.1024a     348.1024a    
 temp               25.0000       25.0000       25.0000       25.0000     
 aic                                                                      
 nf                  1.0000        1.0000        1.0000        1.0000     
 min                 0.            0.            0.            0.         
 rbdb               15.0000       15.0000       15.0000       15.0000     
 rbsb               15.0000       15.0000       15.0000       15.0000     
 rbpb                5.0000        5.0000        5.0000        5.0000     
 rbps               15.0000       15.0000       15.0000       15.0000     
 rbpd               15.0000       15.0000       15.0000       15.0000     
 trnqsmod            0.            0.            0.            0.         
 acnqsmod            0.            0.            0.            0.         
 rbodymod            1.0000        1.0000        1.0000        1.0000     
 rgatemod            1.0000        1.0000        1.0000        1.0000     
 geomod              1.0000        1.0000        1.0000        1.0000     
 rgeomod             0.            0.            0.            0.         
 delvto              0.            0.            0.            0.         
 mulu0               1.0000        1.0000        1.0000        1.0000     
 delk1               0.            0.            0.            0.         
 delnfct             0.            0.            0.            0.         
 deltox              0.            0.            0.            0.         
 sa                  0.            0.            0.            0.         
 sb                  0.            0.            0.            0.         
 sd                  0.            0.            0.            0.         
 saeff               0.            0.            0.            0.         
 sbeff               0.            0.            0.            0.         
 m                   1.0000        1.0000        1.0000        1.0000     
 w drawn           120.0000n     240.0000n     240.0000n     240.0000n    
 l drawn            45.0000n      45.0000n      45.0000n      45.0000n    
  
  
                                                                          
 element name       14:mpm1       14:mpm2       15:mnm2       15:mnm3     
 drain              14:net14       0:net063      0:net062     15:net14    
 gate                0:b0         14:net14      15:net14       0:rst      
 source              0:vdd         0:vdd         0:0          15:net24    
 bulk                0:vdd         0:vdd         0:0           0:0        
 model               0:g45p1svt    0:g45p1svt    0:g45n1svt    0:g45n1svt 
 w eff             230.0000n     230.0000n     110.0000n     230.0000n    
 l eff              17.5000n      17.5000n      17.5000n      17.5000n    
 rd eff              0.            0.            0.            0.         
 rs eff              0.            0.            0.            0.         
 cdsat              23.4075a      23.4075a      12.7102a      23.4075a    
 cssat              23.4075a      23.4075a      12.7102a      23.4075a    
 capbd             396.0064a     396.0064a     267.8632a     396.0064a    
 capbs             348.1024a     348.1024a     243.9112a     348.1024a    
 temp               25.0000       25.0000       25.0000       25.0000     
 aic                                                                      
 nf                  1.0000        1.0000        1.0000        1.0000     
 min                 0.            0.            0.            0.         
 rbdb               15.0000       15.0000       15.0000       15.0000     
 rbsb               15.0000       15.0000       15.0000       15.0000     
 rbpb                5.0000        5.0000        5.0000        5.0000     
 rbps               15.0000       15.0000       15.0000       15.0000     
 rbpd               15.0000       15.0000       15.0000       15.0000     
 trnqsmod            0.            0.            0.            0.         
 acnqsmod            0.            0.            0.            0.         
 rbodymod            1.0000        1.0000        1.0000        1.0000     
 rgatemod            1.0000        1.0000        1.0000        1.0000     
 geomod              1.0000        1.0000        1.0000        1.0000     
 rgeomod             0.            0.            0.            0.         
 delvto              0.            0.            0.            0.         
 mulu0               1.0000        1.0000        1.0000        1.0000     
 delk1               0.            0.            0.            0.         
 delnfct             0.            0.            0.            0.         
 deltox              0.            0.            0.            0.         
 sa                  0.            0.            0.            0.         
 sb                  0.            0.            0.            0.         
 sd                  0.            0.            0.            0.         
 saeff               0.            0.            0.            0.         
 sbeff               0.            0.            0.            0.         
 m                   1.0000        1.0000        1.0000        1.0000     
 w drawn           240.0000n     240.0000n     120.0000n     240.0000n    
 l drawn            45.0000n      45.0000n      45.0000n      45.0000n    
  
  
                                                                          
 element name       15:mnm4       15:mpm0       15:mpm1       15:mpm2     
 drain              15:net24      15:net14      15:net14       0:net062   
 gate                0:b1          0:rst         0:b1         15:net14    
 source              0:0           0:vdd         0:vdd         0:vdd      
 bulk                0:0           0:vdd         0:vdd         0:vdd      
 model               0:g45n1svt    0:g45p1svt    0:g45p1svt    0:g45p1svt 
 w eff             230.0000n     230.0000n     230.0000n     230.0000n    
 l eff              17.5000n      17.5000n      17.5000n      17.5000n    
 rd eff              0.            0.            0.            0.         
 rs eff              0.            0.            0.            0.         
 cdsat              23.4075a      23.4075a      23.4075a      23.4075a    
 cssat              23.4075a      23.4075a      23.4075a      23.4075a    
 capbd             396.0064a     396.0064a     396.0064a     396.0064a    
 capbs             348.1024a     348.1024a     348.1024a     348.1024a    
 temp               25.0000       25.0000       25.0000       25.0000     
 aic                                                                      
 nf                  1.0000        1.0000        1.0000        1.0000     
 min                 0.            0.            0.            0.         
 rbdb               15.0000       15.0000       15.0000       15.0000     
 rbsb               15.0000       15.0000       15.0000       15.0000     
 rbpb                5.0000        5.0000        5.0000        5.0000     
 rbps               15.0000       15.0000       15.0000       15.0000     
 rbpd               15.0000       15.0000       15.0000       15.0000     
 trnqsmod            0.            0.            0.            0.         
 acnqsmod            0.            0.            0.            0.         
 rbodymod            1.0000        1.0000        1.0000        1.0000     
 rgatemod            1.0000        1.0000        1.0000        1.0000     
 geomod              1.0000        1.0000        1.0000        1.0000     
 rgeomod             0.            0.            0.            0.         
 delvto              0.            0.            0.            0.         
 mulu0               1.0000        1.0000        1.0000        1.0000     
 delk1               0.            0.            0.            0.         
 delnfct             0.            0.            0.            0.         
 deltox              0.            0.            0.            0.         
 sa                  0.            0.            0.            0.         
 sb                  0.            0.            0.            0.         
 sd                  0.            0.            0.            0.         
 saeff               0.            0.            0.            0.         
 sbeff               0.            0.            0.            0.         
 m                   1.0000        1.0000        1.0000        1.0000     
 w drawn           240.0000n     240.0000n     240.0000n     240.0000n    
 l drawn            45.0000n      45.0000n      45.0000n      45.0000n    
  
  
                                                                          
 element name       16:mnm2       16:mnm3       16:mnm4       16:mpm0     
 drain               0:net061     16:net14      16:net24      16:net14    
 gate               16:net14       0:rst         0:b2          0:rst      
 source              0:0          16:net24       0:0           0:vdd      
 bulk                0:0           0:0           0:0           0:vdd      
 model               0:g45n1svt    0:g45n1svt    0:g45n1svt    0:g45p1svt 
 w eff             110.0000n     230.0000n     230.0000n     230.0000n    
 l eff              17.5000n      17.5000n      17.5000n      17.5000n    
 rd eff              0.            0.            0.            0.         
 rs eff              0.            0.            0.            0.         
 cdsat              12.7102a      23.4075a      23.4075a      23.4075a    
 cssat              12.7102a      23.4075a      23.4075a      23.4075a    
 capbd             267.8632a     396.0064a     396.0064a     396.0064a    
 capbs             243.9112a     348.1024a     348.1024a     348.1024a    
 temp               25.0000       25.0000       25.0000       25.0000     
 aic                                                                      
 nf                  1.0000        1.0000        1.0000        1.0000     
 min                 0.            0.            0.            0.         
 rbdb               15.0000       15.0000       15.0000       15.0000     
 rbsb               15.0000       15.0000       15.0000       15.0000     
 rbpb                5.0000        5.0000        5.0000        5.0000     
 rbps               15.0000       15.0000       15.0000       15.0000     
 rbpd               15.0000       15.0000       15.0000       15.0000     
 trnqsmod            0.            0.            0.            0.         
 acnqsmod            0.            0.            0.            0.         
 rbodymod            1.0000        1.0000        1.0000        1.0000     
 rgatemod            1.0000        1.0000        1.0000        1.0000     
 geomod              1.0000        1.0000        1.0000        1.0000     
 rgeomod             0.            0.            0.            0.         
 delvto              0.            0.            0.            0.         
 mulu0               1.0000        1.0000        1.0000        1.0000     
 delk1               0.            0.            0.            0.         
 delnfct             0.            0.            0.            0.         
 deltox              0.            0.            0.            0.         
 sa                  0.            0.            0.            0.         
 sb                  0.            0.            0.            0.         
 sd                  0.            0.            0.            0.         
 saeff               0.            0.            0.            0.         
 sbeff               0.            0.            0.            0.         
 m                   1.0000        1.0000        1.0000        1.0000     
 w drawn           120.0000n     240.0000n     240.0000n     240.0000n    
 l drawn            45.0000n      45.0000n      45.0000n      45.0000n    
  
  
                                                                          
 element name       16:mpm1       16:mpm2       17:mnm2       17:mnm3     
 drain              16:net14       0:net061      0:net060     17:net14    
 gate                0:b2         16:net14      17:net14       0:rst      
 source              0:vdd         0:vdd         0:0          17:net24    
 bulk                0:vdd         0:vdd         0:0           0:0        
 model               0:g45p1svt    0:g45p1svt    0:g45n1svt    0:g45n1svt 
 w eff             230.0000n     230.0000n     110.0000n     230.0000n    
 l eff              17.5000n      17.5000n      17.5000n      17.5000n    
 rd eff              0.            0.            0.            0.         
 rs eff              0.            0.            0.            0.         
 cdsat              23.4075a      23.4075a      12.7102a      23.4075a    
 cssat              23.4075a      23.4075a      12.7102a      23.4075a    
 capbd             396.0064a     396.0064a     267.8632a     396.0064a    
 capbs             348.1024a     348.1024a     243.9112a     348.1024a    
 temp               25.0000       25.0000       25.0000       25.0000     
 aic                                                                      
 nf                  1.0000        1.0000        1.0000        1.0000     
 min                 0.            0.            0.            0.         
 rbdb               15.0000       15.0000       15.0000       15.0000     
 rbsb               15.0000       15.0000       15.0000       15.0000     
 rbpb                5.0000        5.0000        5.0000        5.0000     
 rbps               15.0000       15.0000       15.0000       15.0000     
 rbpd               15.0000       15.0000       15.0000       15.0000     
 trnqsmod            0.            0.            0.            0.         
 acnqsmod            0.            0.            0.            0.         
 rbodymod            1.0000        1.0000        1.0000        1.0000     
 rgatemod            1.0000        1.0000        1.0000        1.0000     
 geomod              1.0000        1.0000        1.0000        1.0000     
 rgeomod             0.            0.            0.            0.         
 delvto              0.            0.            0.            0.         
 mulu0               1.0000        1.0000        1.0000        1.0000     
 delk1               0.            0.            0.            0.         
 delnfct             0.            0.            0.            0.         
 deltox              0.            0.            0.            0.         
 sa                  0.            0.            0.            0.         
 sb                  0.            0.            0.            0.         
 sd                  0.            0.            0.            0.         
 saeff               0.            0.            0.            0.         
 sbeff               0.            0.            0.            0.         
 m                   1.0000        1.0000        1.0000        1.0000     
 w drawn           240.0000n     240.0000n     120.0000n     240.0000n    
 l drawn            45.0000n      45.0000n      45.0000n      45.0000n    
  
  
                                                                          
 element name       17:mnm4       17:mpm0       17:mpm1       17:mpm2     
 drain              17:net24      17:net14      17:net14       0:net060   
 gate                0:b3          0:rst         0:b3         17:net14    
 source              0:0           0:vdd         0:vdd         0:vdd      
 bulk                0:0           0:vdd         0:vdd         0:vdd      
 model               0:g45n1svt    0:g45p1svt    0:g45p1svt    0:g45p1svt 
 w eff             230.0000n     230.0000n     230.0000n     230.0000n    
 l eff              17.5000n      17.5000n      17.5000n      17.5000n    
 rd eff              0.            0.            0.            0.         
 rs eff              0.            0.            0.            0.         
 cdsat              23.4075a      23.4075a      23.4075a      23.4075a    
 cssat              23.4075a      23.4075a      23.4075a      23.4075a    
 capbd             396.0064a     396.0064a     396.0064a     396.0064a    
 capbs             348.1024a     348.1024a     348.1024a     348.1024a    
 temp               25.0000       25.0000       25.0000       25.0000     
 aic                                                                      
 nf                  1.0000        1.0000        1.0000        1.0000     
 min                 0.            0.            0.            0.         
 rbdb               15.0000       15.0000       15.0000       15.0000     
 rbsb               15.0000       15.0000       15.0000       15.0000     
 rbpb                5.0000        5.0000        5.0000        5.0000     
 rbps               15.0000       15.0000       15.0000       15.0000     
 rbpd               15.0000       15.0000       15.0000       15.0000     
 trnqsmod            0.            0.            0.            0.         
 acnqsmod            0.            0.            0.            0.         
 rbodymod            1.0000        1.0000        1.0000        1.0000     
 rgatemod            1.0000        1.0000        1.0000        1.0000     
 geomod              1.0000        1.0000        1.0000        1.0000     
 rgeomod             0.            0.            0.            0.         
 delvto              0.            0.            0.            0.         
 mulu0               1.0000        1.0000        1.0000        1.0000     
 delk1               0.            0.            0.            0.         
 delnfct             0.            0.            0.            0.         
 deltox              0.            0.            0.            0.         
 sa                  0.            0.            0.            0.         
 sb                  0.            0.            0.            0.         
 sd                  0.            0.            0.            0.         
 saeff               0.            0.            0.            0.         
 sbeff               0.            0.            0.            0.         
 m                   1.0000        1.0000        1.0000        1.0000     
 w drawn           240.0000n     240.0000n     240.0000n     240.0000n    
 l drawn            45.0000n      45.0000n      45.0000n      45.0000n    
  
  
                                                                          
 element name       18:mpm3       18:mpm2       18:mpm1       18:mpm0     
 drain               0:b3p        18:net13      18:net26      18:net28    
 gate               18:net12       0:phi        18:net13       0:net060   
 source             18:net26      18:net28       0:vdd         0:vdd      
 bulk                0:vdd         0:vdd         0:vdd         0:vdd      
 model               0:g45p1svt    0:g45p1svt    0:g45p1svt    0:g45p1svt 
 w eff             470.0000n     470.0000n     470.0000n     470.0000n    
 l eff              17.5000n      17.5000n      17.5000n      17.5000n    
 rd eff              0.            0.            0.            0.         
 rs eff              0.            0.            0.            0.         
 cdsat              44.8021a      44.8021a      44.8021a      44.8021a    
 cssat              44.8021a      44.8021a      44.8021a      44.8021a    
 capbd             652.2928a     652.2928a     652.2928a     652.2928a    
 capbs             556.4848a     556.4848a     556.4848a     556.4848a    
 temp               25.0000       25.0000       25.0000       25.0000     
 aic                                                                      
 nf                  1.0000        1.0000        1.0000        1.0000     
 min                 0.            0.            0.            0.         
 rbdb               15.0000       15.0000       15.0000       15.0000     
 rbsb               15.0000       15.0000       15.0000       15.0000     
 rbpb                5.0000        5.0000        5.0000        5.0000     
 rbps               15.0000       15.0000       15.0000       15.0000     
 rbpd               15.0000       15.0000       15.0000       15.0000     
 trnqsmod            0.            0.            0.            0.         
 acnqsmod            0.            0.            0.            0.         
 rbodymod            1.0000        1.0000        1.0000        1.0000     
 rgatemod            1.0000        1.0000        1.0000        1.0000     
 geomod              1.0000        1.0000        1.0000        1.0000     
 rgeomod             0.            0.            0.            0.         
 delvto              0.            0.            0.            0.         
 mulu0               1.0000        1.0000        1.0000        1.0000     
 delk1               0.            0.            0.            0.         
 delnfct             0.            0.            0.            0.         
 deltox              0.            0.            0.            0.         
 sa                  0.            0.            0.            0.         
 sb                  0.            0.            0.            0.         
 sd                  0.            0.            0.            0.         
 saeff               0.            0.            0.            0.         
 sbeff               0.            0.            0.            0.         
 m                   1.0000        1.0000        1.0000        1.0000     
 w drawn           480.0000n     480.0000n     480.0000n     480.0000n    
 l drawn            45.0000n      45.0000n      45.0000n      45.0000n    
  
  
                                                                          
 element name       18:mnm3       18:mnm2       18:mnm1       18:mnm0     
 drain              18:net25      18:net27       0:b3p        18:net13    
 gate               18:net13       0:net060      0:phi        18:net12    
 source              0:0           0:0          18:net25      18:net27    
 bulk                0:0           0:0           0:0           0:0        
 model               0:g45n1svt    0:g45n1svt    0:g45n1svt    0:g45n1svt 
 w eff             230.0000n     230.0000n     230.0000n     230.0000n    
 l eff              17.5000n      17.5000n      17.5000n      17.5000n    
 rd eff              0.            0.            0.            0.         
 rs eff              0.            0.            0.            0.         
 cdsat              23.4075a      23.4075a      23.4075a      23.4075a    
 cssat              23.4075a      23.4075a      23.4075a      23.4075a    
 capbd             396.0064a     396.0064a     396.0064a     396.0064a    
 capbs             348.1024a     348.1024a     348.1024a     348.1024a    
 temp               25.0000       25.0000       25.0000       25.0000     
 aic                                                                      
 nf                  1.0000        1.0000        1.0000        1.0000     
 min                 0.            0.            0.            0.         
 rbdb               15.0000       15.0000       15.0000       15.0000     
 rbsb               15.0000       15.0000       15.0000       15.0000     
 rbpb                5.0000        5.0000        5.0000        5.0000     
 rbps               15.0000       15.0000       15.0000       15.0000     
 rbpd               15.0000       15.0000       15.0000       15.0000     
 trnqsmod            0.            0.            0.            0.         
 acnqsmod            0.            0.            0.            0.         
 rbodymod            1.0000        1.0000        1.0000        1.0000     
 rgatemod            1.0000        1.0000        1.0000        1.0000     
 geomod              1.0000        1.0000        1.0000        1.0000     
 rgeomod             0.            0.            0.            0.         
 delvto              0.            0.            0.            0.         
 mulu0               1.0000        1.0000        1.0000        1.0000     
 delk1               0.            0.            0.            0.         
 delnfct             0.            0.            0.            0.         
 deltox              0.            0.            0.            0.         
 sa                  0.            0.            0.            0.         
 sb                  0.            0.            0.            0.         
 sd                  0.            0.            0.            0.         
 saeff               0.            0.            0.            0.         
 sbeff               0.            0.            0.            0.         
 m                   1.0000        1.0000        1.0000        1.0000     
 w drawn           240.0000n     240.0000n     240.0000n     240.0000n    
 l drawn            45.0000n      45.0000n      45.0000n      45.0000n    
  
  
                                                                          
 element name       19:mpm3       19:mpm2       19:mpm1       19:mpm0     
 drain               0:b2p        19:net13      19:net26      19:net28    
 gate               19:net12       0:phi        19:net13       0:net061   
[...]
 160:net24        160:mpm3:s       160:mpm1:d                                         
 160:net25        160:mpm2:s       160:mpm0:d                                         
 161:net16        161:mnm1:d       161:mnm0:s                                         
 162:net16        162:mnm1:d       162:mnm0:s                                         
 163:net16        163:mnm1:d       163:mnm0:s                                         
 164:net010       164:mpm2:g       164:mnm0:g       257:mnm0:d       257:mpm0:d       
 164:net09        164:mpm1:g       164:mnm2:g       258:mnm0:d       258:mpm0:d       
 164:net22        164:mnm3:d       164:mnm1:s                                         
 164:net23        164:mnm2:d       164:mnm0:s                                         
 164:net24        164:mpm3:s       164:mpm1:d                                         
 164:net25        164:mpm2:s       164:mpm0:d                                         
 165:net010       165:mpm2:g       165:mnm0:g       259:mnm0:d       259:mpm0:d       
 165:net09        165:mpm1:g       165:mnm2:g       260:mnm0:d       260:mpm0:d       
 165:net22        165:mnm3:d       165:mnm1:s                                         
 165:net23        165:mnm2:d       165:mnm0:s                                         
 165:net24        165:mpm3:s       165:mpm1:d                                         
 165:net25        165:mpm2:s       165:mpm0:d                                         
 166:net16        166:mnm1:d       166:mnm0:s                                         
 167:net16        167:mnm1:d       167:mnm0:s                                         
 168:net16        168:mnm1:d       168:mnm0:s                                         
 169:net010       169:mpm2:g       169:mnm0:g       261:mnm0:d       261:mpm0:d       
 169:net09        169:mpm1:g       169:mnm2:g       262:mnm0:d       262:mpm0:d       
 169:net22        169:mnm3:d       169:mnm1:s                                         
 169:net23        169:mnm2:d       169:mnm0:s                                         
 169:net24        169:mpm3:s       169:mpm1:d                                         
 169:net25        169:mpm2:s       169:mpm0:d                                         
 170:net010       170:mpm2:g       170:mnm0:g       263:mnm0:d       263:mpm0:d       
 170:net09        170:mpm1:g       170:mnm2:g       264:mnm0:d       264:mpm0:d       
 170:net22        170:mnm3:d       170:mnm1:s                                         
 170:net23        170:mnm2:d       170:mnm0:s                                         
 170:net24        170:mpm3:s       170:mpm1:d                                         
 170:net25        170:mpm2:s       170:mpm0:d                                         
 171:net16        171:mnm1:d       171:mnm0:s                                         
 172:net16        172:mnm1:d       172:mnm0:s                                         
 173:net16        173:mnm1:d       173:mnm0:s                                         
 174:net010       174:mpm2:g       174:mnm0:g       265:mnm0:d       265:mpm0:d       
 174:net09        174:mpm1:g       174:mnm2:g       266:mnm0:d       266:mpm0:d       
 174:net22        174:mnm3:d       174:mnm1:s                                         
 174:net23        174:mnm2:d       174:mnm0:s                                         
 174:net24        174:mpm3:s       174:mpm1:d                                         
 174:net25        174:mpm2:s       174:mpm0:d                                         
 175:net010       175:mpm2:g       175:mnm0:g       267:mnm0:d       267:mpm0:d       
 175:net09        175:mpm1:g       175:mnm2:g       268:mnm0:d       268:mpm0:d       
 175:net22        175:mnm3:d       175:mnm1:s                                         
 175:net23        175:mnm2:d       175:mnm0:s                                         
 175:net24        175:mpm3:s       175:mpm1:d                                         
 175:net25        175:mpm2:s       175:mpm0:d                                         
 176:net16        176:mnm1:d       176:mnm0:s                                         
 177:net16        177:mnm1:d       177:mnm0:s                                         
 178:net16        178:mnm1:d       178:mnm0:s                                         
 179:net010       179:mpm2:g       179:mnm0:g       269:mnm0:d       269:mpm0:d       
 179:net09        179:mpm1:g       179:mnm2:g       270:mnm0:d       270:mpm0:d       
 179:net22        179:mnm3:d       179:mnm1:s                                         
 179:net23        179:mnm2:d       179:mnm0:s                                         
 179:net24        179:mpm3:s       179:mpm1:d                                         
 179:net25        179:mpm2:s       179:mpm0:d                                         
 180:net010       180:mpm2:g       180:mnm0:g       271:mnm0:d       271:mpm0:d       
 180:net09        180:mpm1:g       180:mnm2:g       272:mnm0:d       272:mpm0:d       
 180:net22        180:mnm3:d       180:mnm1:s                                         
 180:net23        180:mnm2:d       180:mnm0:s                                         
 180:net24        180:mpm3:s       180:mpm1:d                                         
 180:net25        180:mpm2:s       180:mpm0:d                                         
 181:net16        181:mnm1:d       181:mnm0:s                                         
 182:net16        182:mnm1:d       182:mnm0:s                                         
 183:net16        183:mnm1:d       183:mnm0:s                                         
 184:net010       184:mpm2:g       184:mnm0:g       273:mnm0:d       273:mpm0:d       
 184:net09        184:mpm1:g       184:mnm2:g       274:mnm0:d       274:mpm0:d       
 184:net22        184:mnm3:d       184:mnm1:s                                         
 184:net23        184:mnm2:d       184:mnm0:s                                         
 184:net24        184:mpm3:s       184:mpm1:d                                         
 184:net25        184:mpm2:s       184:mpm0:d                                         
 185:net010       185:mpm2:g       185:mnm0:g       275:mnm0:d       275:mpm0:d       
 185:net09        185:mpm1:g       185:mnm2:g       276:mnm0:d       276:mpm0:d       
 185:net22        185:mnm3:d       185:mnm1:s                                         
 185:net23        185:mnm2:d       185:mnm0:s                                         
 185:net24        185:mpm3:s       185:mpm1:d                                         
 185:net25        185:mpm2:s       185:mpm0:d                                         
 186:net16        186:mnm1:d       186:mnm0:s                                         
 187:net16        187:mnm1:d       187:mnm0:s                                         
 188:net16        188:mnm1:d       188:mnm0:s                                         
 189:net010       189:mpm2:g       189:mnm0:g       277:mnm0:d       277:mpm0:d       
 189:net09        189:mpm1:g       189:mnm2:g       278:mnm0:d       278:mpm0:d       
 189:net22        189:mnm3:d       189:mnm1:s                                         
 189:net23        189:mnm2:d       189:mnm0:s                                         
 189:net24        189:mpm3:s       189:mpm1:d                                         
 189:net25        189:mpm2:s       189:mpm0:d                                         
 190:net010       190:mpm2:g       190:mnm0:g       279:mnm0:d       279:mpm0:d       
 190:net09        190:mpm1:g       190:mnm2:g       280:mnm0:d       280:mpm0:d       
 190:net22        190:mnm3:d       190:mnm1:s                                         
 190:net23        190:mnm2:d       190:mnm0:s                                         
 190:net24        190:mpm3:s       190:mpm1:d                                         
 190:net25        190:mpm2:s       190:mpm0:d                                         
 191:net16        191:mnm1:d       191:mnm0:s                                         
 192:net16        192:mnm1:d       192:mnm0:s                                         
 193:net16        193:mnm1:d       193:mnm0:s                                         
 194:net010       194:mpm2:g       194:mnm0:g       281:mnm0:d       281:mpm0:d       
 194:net09        194:mpm1:g       194:mnm2:g       282:mnm0:d       282:mpm0:d       
 194:net22        194:mnm3:d       194:mnm1:s                                         
 194:net23        194:mnm2:d       194:mnm0:s                                         
 194:net24        194:mpm3:s       194:mpm1:d                                         
 194:net25        194:mpm2:s       194:mpm0:d                                         
 195:net010       195:mpm2:g       195:mnm0:g       283:mnm0:d       283:mpm0:d       
 195:net09        195:mpm1:g       195:mnm2:g       284:mnm0:d       284:mpm0:d       
 195:net22        195:mnm3:d       195:mnm1:s                                         
 195:net23        195:mnm2:d       195:mnm0:s                                         
 195:net24        195:mpm3:s       195:mpm1:d                                         
 195:net25        195:mpm2:s       195:mpm0:d                                         
 196:net16        196:mnm1:d       196:mnm0:s                                         
 197:net16        197:mnm1:d       197:mnm0:s                                         
 198:net16        198:mnm1:d       198:mnm0:s                                         
 199:net010       199:mpm2:g       199:mnm0:g       285:mnm0:d       285:mpm0:d       
 199:net09        199:mpm1:g       199:mnm2:g       286:mnm0:d       286:mpm0:d       
 199:net22        199:mnm3:d       199:mnm1:s                                         
 199:net23        199:mnm2:d       199:mnm0:s                                         
 199:net24        199:mpm3:s       199:mpm1:d                                         
 199:net25        199:mpm2:s       199:mpm0:d                                         
 200:net010       200:mpm2:g       200:mnm0:g       287:mnm0:d       287:mpm0:d       
 200:net09        200:mpm1:g       200:mnm2:g       288:mnm0:d       288:mpm0:d       
 200:net22        200:mnm3:d       200:mnm1:s                                         
 200:net23        200:mnm2:d       200:mnm0:s                                         
 200:net24        200:mpm3:s       200:mpm1:d                                         
 200:net25        200:mpm2:s       200:mpm0:d                                         
 202:net12        202:mpm3:g       202:mnm0:g       294:mnm0:d       294:mpm0:d       
 202:net13        202:mpm2:d       202:mpm1:g       202:mnm3:g       202:mnm0:d       
 202:net25        202:mnm3:d       202:mnm1:s                                         
 202:net26        202:mpm3:s       202:mpm1:d                                         
 202:net27        202:mnm2:d       202:mnm0:s                                         
 202:net28        202:mpm2:s       202:mpm0:d                                         
 203:net12        203:mpm3:g       203:mnm0:g       295:mnm0:d       295:mpm0:d       
 203:net13        203:mpm2:d       203:mpm1:g       203:mnm3:g       203:mnm0:d       
 203:net25        203:mnm3:d       203:mnm1:s                                         
 203:net26        203:mpm3:s       203:mpm1:d                                         
 203:net27        203:mnm2:d       203:mnm0:s                                         
 203:net28        203:mpm2:s       203:mpm0:d                                         
 204:net12        204:mpm3:g       204:mnm0:g       296:mnm0:d       296:mpm0:d       
 204:net13        204:mpm2:d       204:mpm1:g       204:mnm3:g       204:mnm0:d       
 204:net25        204:mnm3:d       204:mnm1:s                                         
 204:net26        204:mpm3:s       204:mpm1:d                                         
 204:net27        204:mnm2:d       204:mnm0:s                                         
 204:net28        204:mpm2:s       204:mpm0:d                                         
 205:net12        205:mpm3:g       205:mnm0:g       297:mnm0:d       297:mpm0:d       
 205:net13        205:mpm2:d       205:mpm1:g       205:mnm3:g       205:mnm0:d       
 205:net25        205:mnm3:d       205:mnm1:s                                         
 205:net26        205:mpm3:s       205:mpm1:d                                         
 205:net27        205:mnm2:d       205:mnm0:s                                         
 205:net28        205:mpm2:s       205:mpm0:d                                         
 206:net12        206:mpm3:g       206:mnm0:g       298:mnm0:d       298:mpm0:d       
 206:net13        206:mpm2:d       206:mpm1:g       206:mnm3:g       206:mnm0:d       
 206:net25        206:mnm3:d       206:mnm1:s                                         
 206:net26        206:mpm3:s       206:mpm1:d                                         
 206:net27        206:mnm2:d       206:mnm0:s                                         
 206:net28        206:mpm2:s       206:mpm0:d                                         
 207:net12        207:mpm3:g       207:mnm0:g       299:mnm0:d       299:mpm0:d       
 207:net13        207:mpm2:d       207:mpm1:g       207:mnm3:g       207:mnm0:d       
 207:net25        207:mnm3:d       207:mnm1:s                                         
 207:net26        207:mpm3:s       207:mpm1:d                                         
 207:net27        207:mnm2:d       207:mnm0:s                                         
 207:net28        207:mpm2:s       207:mpm0:d                                         
 208:net12        208:mpm3:g       208:mnm0:g       300:mnm0:d       300:mpm0:d       
 208:net13        208:mpm2:d       208:mpm1:g       208:mnm3:g       208:mnm0:d       
 208:net25        208:mnm3:d       208:mnm1:s                                         
 208:net26        208:mpm3:s       208:mpm1:d                                         
 208:net27        208:mnm2:d       208:mnm0:s                                         
 208:net28        208:mpm2:s       208:mpm0:d                                         
 209:net12        209:mpm3:g       209:mnm0:g       301:mnm0:d       301:mpm0:d       
 209:net13        209:mpm2:d       209:mpm1:g       209:mnm3:g       209:mnm0:d       
 209:net25        209:mnm3:d       209:mnm1:s                                         
 209:net26        209:mpm3:s       209:mpm1:d                                         
 209:net27        209:mnm2:d       209:mnm0:s                                         
 209:net28        209:mpm2:s       209:mpm0:d                                         
 289:net12        289:mpm3:g       289:mnm0:g       302:mnm0:d       302:mpm0:d       
 289:net13        289:mpm2:d       289:mpm1:g       289:mnm3:g       289:mnm0:d       
 289:net25        289:mnm3:d       289:mnm1:s                                         
 289:net26        289:mpm3:s       289:mpm1:d                                         
 289:net27        289:mnm2:d       289:mnm0:s                                         
 289:net28        289:mpm2:s       289:mpm0:d                                         
 290:net12        290:mpm3:g       290:mnm0:g       303:mnm0:d       303:mpm0:d       
 290:net13        290:mpm2:d       290:mpm1:g       290:mnm3:g       290:mnm0:d       
 290:net25        290:mnm3:d       290:mnm1:s                                         
 290:net26        290:mpm3:s       290:mpm1:d                                         
 290:net27        290:mnm2:d       290:mnm0:s                                         
 290:net28        290:mpm2:s       290:mpm0:d                                         
 291:net12        291:mpm3:g       291:mnm0:g       304:mnm0:d       304:mpm0:d       
 291:net13        291:mpm2:d       291:mpm1:g       291:mnm3:g       291:mnm0:d       
 291:net25        291:mnm3:d       291:mnm1:s                                         
 291:net26        291:mpm3:s       291:mpm1:d                                         
 291:net27        291:mnm2:d       291:mnm0:s                                         
 291:net28        291:mpm2:s       291:mpm0:d                                         
 292:net12        292:mpm3:g       292:mnm0:g       305:mnm0:d       305:mpm0:d       
 292:net13        292:mpm2:d       292:mpm1:g       292:mnm3:g       292:mnm0:d       
 292:net25        292:mnm3:d       292:mnm1:s                                         
 292:net26        292:mpm3:s       292:mpm1:d                                         
 292:net27        292:mnm2:d       292:mnm0:s                                         
 292:net28        292:mpm2:s       292:mpm0:d                                         
 293:net12        293:mpm3:g       293:mnm0:g       306:mnm0:d       306:mpm0:d       
 293:net13        293:mpm2:d       293:mpm1:g       293:mnm3:g       293:mnm0:d       
 293:net25        293:mnm3:d       293:mnm1:s                                         
 293:net26        293:mpm3:s       293:mpm1:d                                         
 293:net27        293:mnm2:d       293:mnm0:s                                         
 293:net28        293:mpm2:s       293:mpm0:d                                         
 **info** set option symb=1 internally to help for convergence.
 *****************************************************************
 ******  option summary
 ******
 runlvl  = 3         bypass  = 2.0000    
  Opening plot unit= 15
 file=pep.pa0

 no convergence with standard algorithm,  trying damped pseudo-transient

  **error**  Error happens when writting waveform for Cannot open output file

 **error** simulation was stopped by signal SIGINT = 2

 ******  
 * first line is treated as comment

 ****** job statistics summary tnom=  25.000 temp=  25.000 ******
  
 ******  Machine Information  ******
 CPU:
 model name	: Intel(R) Xeon(R) Silver 4216 CPU @ 2.10GHz
 cpu MHz	: 3200.000
 CPU(s)		: 64
  
 OS:
 Linux version 4.18.0-553.16.1.el8_10.x86_64 (mockbuild@x86-64-01.build.eng.rdu2.redhat.com) (gcc version 8.5.0 20210514 (Red Hat 8.5.0-22) (GCC)) #1 SMP Thu Aug 1 04:16:12 EDT 2024

 System loadavg : 7.08 7.04 7.07 8/1324 199876


  ******  PrimeSim HSPICE Threads Information  ******

  Command Line Threads Count :     1
  Available CPU Count        :    64
  Actual Threads Count       :     1


  ****** Statistics of Ignored Elements ******
  Voltage Sources :       1

  ******  Circuit Statistics  ******
  # nodes       =    5442 # elements   =    1195
  # resistors   =       0 # capacitors =       0 # inductors   =       0
  # mutual_inds =       0 # vccs       =       0 # vcvs        =       0
  # cccs        =       0 # ccvs       =       0 # volt_srcs   =       2
  # curr_srcs   =       0 # diodes     =       0 # bjts        =       0
  # jfets       =       0 # mosfets    =    1184 # U elements  =       0
  # T elements  =       0 # W elements =       0 # B elements  =       0
  # S elements  =       0 # P elements =       0 # va device   =       0
  # vector_srcs =       9 # N elements =       0


  ******  Runtime Statistics (seconds)  ******

  analysis           time    # points   tot. iter  conv.iter
  op point           0.00           1         543
  transient          0.00        5001           0           0 rev=         0
  readin             0.01
  errchk             0.18
  setup              0.23
  output             0.00


           peak memory used        539.23 megabytes
           total cpu time            2.47 seconds
           total elapsed time        2.53 seconds
           job started at     21:12:15 04/06/2025
           job ended   at     21:12:18 04/06/2025
 lic: Release hspice token(s) 
 lic: total license checkout elapse time:        0.05(s)
