Using: /opt/synopsys/hspice/hspice/T-2022.06-3/hspice/linux64/hspice mult.sp
 ****** PrimeSim HSPICE -- T-2022.06-3 linux64 (Aug 04 2022 7739753) ******
  Copyright (c) 1986 - 2025 by Synopsys, Inc. All Rights Reserved.
  This software and the associated documentation are proprietary
  to Synopsys, Inc. This software may only be used in accordance
  with the terms and conditions of a written license agreement with
  Synopsys, Inc. All other use, reproduction, or distribution of
  this software is strictly prohibited.
  Input File: mult.sp                                                           
  Command line options: /opt/synopsys/hspice/hspice/T-2022.06-3/hspice/linux64/hspice mult.sp
  Start time: Tue Mar 25 14:50:44 2025
 lic:  
 lic: FLEXlm: SDK_12.10 
 lic: USER:   cdeclercq            HOSTNAME: vlsicad.ecs.umass.edu 
 lic: HOSTID: 13ac8554             PID:      3769990 
 lic: Using FLEXlm license file: 
 lic: 27020@vlsicad.ecs.umass.edu 
 lic: Checkout 1 hspice 
 lic: License/Maintenance for hspice will expire on 09-sep-2025/2023.12 
 lic: 1(in_use)/50(total) FLOATING license(s) on SERVER 27020@vlsicad.ecs.umass.edu 
 lic:   
 scientific notation:
 a=10**-18  f=10**-15  p=10**-12  n=10**-9  u=10**-6
 m=10**-3   k=10**3    x=10**6    g=10**9 
  **warning** (mult.sp:36) Global net name "gnd" in subckt pin list. The pin will be connected to the local net. Recommend to not use global net names in subckt pin lists.
1****** PrimeSim HSPICE -- T-2022.06-3 linux64 (Aug 04 2022 7739753) ******
 ******  
 * first line is treated as comment

 ****** circuit name directory
 circuit number to circuit name directory
   number circuitname                     definition         multiplier
        0 main circuit
        1 xmult1.                         multiplier         1.00 
        2 xmult1.xi23.                    and                1.00 
        3 xmult1.xi15.                    and                1.00 
        4 xmult1.xi14.                    and                1.00 
        5 xmult1.xi13.                    and                1.00 
        6 xmult1.xi7.                     and                1.00 
        7 xmult1.xi5.                     and                1.00 
        8 xmult1.xi4.                     and                1.00 
        9 xmult1.xi2.                     and                1.00 
       10 xmult1.xi1.                     and                1.00 
       11 xmult1.xi0.                     and                1.00 
       12 xmult1.xi22.                    nand               1.00 
       13 xmult1.xi21.                    nand               1.00 
       14 xmult1.xi20.                    nand               1.00 
       15 xmult1.xi12.                    nand               1.00 
       16 xmult1.xi6.                     nand               1.00 
       17 xmult1.xi3.                     nand               1.00 
       18 xmult1.xi31.                    half_adder         1.00 
       19 xmult1.xi32.                    half_adder         1.00 
       20 xmult1.xi30.                    half_adder         1.00 
       21 xmult1.xi29.                    half_adder         1.00 
       22 xmult1.xi28.                    full_adder         1.00 
       23 xmult1.xi27.                    full_adder         1.00 
       24 xmult1.xi26.                    full_adder         1.00 
       25 xmult1.xi19.                    full_adder         1.00 
       26 xmult1.xi18.                    full_adder         1.00 
       27 xmult1.xi17.                    full_adder         1.00 
       28 xmult1.xi11.                    full_adder         1.00 
       29 xmult1.xi10.                    full_adder         1.00 
       30 xmult1.xi9.                     full_adder         1.00 
       31 xmult1.xi31.xi0.                and                1.00 
       32 xmult1.xi31.xi1.                xor                1.00 
       33 xmult1.xi32.xi0.                and                1.00 
       34 xmult1.xi32.xi1.                xor                1.00 
       35 xmult1.xi30.xi0.                and                1.00 
       36 xmult1.xi30.xi1.                xor                1.00 
       37 xmult1.xi29.xi0.                and                1.00 
       38 xmult1.xi29.xi1.                xor                1.00 
       39 xmult1.xi28.xi8.                inv                1.00 
       40 xmult1.xi28.xi7.                inv                1.00 
       41 xmult1.xi28.xi6.                inv                1.00 
       42 xmult1.xi27.xi8.                inv                1.00 
       43 xmult1.xi27.xi7.                inv                1.00 
       44 xmult1.xi27.xi6.                inv                1.00 
       45 xmult1.xi26.xi8.                inv                1.00 
       46 xmult1.xi26.xi7.                inv                1.00 
       47 xmult1.xi26.xi6.                inv                1.00 
       48 xmult1.xi19.xi8.                inv                1.00 
       49 xmult1.xi19.xi7.                inv                1.00 
       50 xmult1.xi19.xi6.                inv                1.00 
       51 xmult1.xi18.xi8.                inv                1.00 
       52 xmult1.xi18.xi7.                inv                1.00 
       53 xmult1.xi18.xi6.                inv                1.00 
       54 xmult1.xi17.xi8.                inv                1.00 
       55 xmult1.xi17.xi7.                inv                1.00 
       56 xmult1.xi17.xi6.                inv                1.00 
       57 xmult1.xi11.xi8.                inv                1.00 
       58 xmult1.xi11.xi7.                inv                1.00 
       59 xmult1.xi11.xi6.                inv                1.00 
       60 xmult1.xi10.xi8.                inv                1.00 
       61 xmult1.xi10.xi7.                inv                1.00 
       62 xmult1.xi10.xi6.                inv                1.00 
       63 xmult1.xi9.xi8.                 inv                1.00 
       64 xmult1.xi9.xi7.                 inv                1.00 
       65 xmult1.xi9.xi6.                 inv                1.00 
       66 xmult1.xi31.xi1.xi2.            inv                1.00 
       67 xmult1.xi31.xi1.xi3.            inv                1.00 
       68 xmult1.xi32.xi1.xi2.            inv                1.00 
       69 xmult1.xi32.xi1.xi3.            inv                1.00 
       70 xmult1.xi30.xi1.xi2.            inv                1.00 
       71 xmult1.xi30.xi1.xi3.            inv                1.00 
       72 xmult1.xi29.xi1.xi2.            inv                1.00 
       73 xmult1.xi29.xi1.xi3.            inv                1.00 


 circuit parameter definitions
  parameter          =  value 

     0:vdd_val                                                 =   1.1000       
     0:tris                                                    =  50.0000       
     0:tper                                                    = 500.0000       
     0:tfall                                                   =  50.0000       
     0:tpw                                                     = 200.0000       
     0:tdlay                                                   =   0.           
     1:size                                                    =   1.0000       




 constants  - tnom         kt           vt           gapsi        ni
            298.15000    4.1163e-21    25.69184m     1.11562    1.2565e+16 
 ******  
 * first line is treated as comment

 ****** mos   model parameters tnom=  25.000 temp=  25.000 ******
 Model file: /opt/cadence/gpdk045/gpdk045_v_6_0/models/hspice/g45n1svt.inc
 Model line:            3
 Model Name: g45n1svt  
 BSIM4 Model (Level 54)
    MOBMOD = 0
    BINUNIT = 1
    PARAMCHK = 1
    CAPMOD = 2
    DIOMOD = 1
    RDSMOD = 0
    TRNQSMOD = 0
    ACNQSMOD = 0
    RBODYMOD = 1
    RGATEMOD = 1
    PERMOD = 1
    GEOMOD = 1
    RGEOMOD = 0
    FNOIMOD = 1
    TNOIMOD = 0
    IGCMOD = 1
    IGBMOD = 1
    STIMOD = 0
    VERSION =      4 
    TOXREF = 1.14e-09 
    TOXE = 1.14e-09 
    TOXP =  1e-09 
    TOXM = 1.14e-09 
    DTOX = 1.4e-10 
    EPSROX =    3.9 
    CDSC =      0 
    CDSCB =      0 
    CDSCD =      0 
    CIT =      0 
    NFACTOR =    2.1 
    XJ = 1.98e-08 
    VSAT = 1.23e+05 
    A0 =      1 
    AGS =      0 
    A1 =      0 
    A2 =      1 
    AT = 3.3e+04 
    KETA =   0.04 
    NSUB =  6e+16 
    NDEP = 3.4e+18 
    NSD =  2e+20 
    NGATE =  3e+20 
    GAMMA1 =      0 
    GAMMA2 =      0 
    VBX =      0 
    VBM =     -3 
    XT = 1.55e-07 
    K1 =    0.4 
    KT1 =  -0.11 
    KT1L =      0 
    KT2 =  0.022 
    K2 =      0 
    K3 =      0 
    K3B =      0 
    LPE0 =      0 
    LPEB =      0 
    DVTP0 =  1e-10 
    DVTP1 =    0.1 
    W0 = 2.5e-06 
    DVT0 =      1 
    DVT1 =      2 
    DVT2 =      0 
    DVT0W =      0 
    DVT1W =      0 
    DVT2W =      0 
    DROUT =    0.5 
    DSUB =    0.1 
    VTH0 = 0.4106 
    EU =   1.67 
    UA =  6e-10 
    UA1 = 4.31e-09 
    UB = 1.2e-18 
    UB1 = 7.61e-18 
    UC =      0 
    UC1 = -5.6e-11 
    U0 =  0.045 
    UTE =   -1.5 
    VOFF =  -0.13 
    VOFFL =      0 
    MINV =   0.05 
    FPROUT =    0.2 
    PDITS =   0.08 
    PDITSD =   0.23 
    PDITSL = 2.3e+06 
    DELTA =   0.01 
    RDSW =    155 
    RDSWMIN =      0 
    RDWMIN =      0 
    RSWMIN =      0 
    RDW =     80 
    RSW =     80 
    PRWG =      0 
    PRWB =      0 
    PRT =      0 
    ETA0 =  0.006 
    ETAB =      0 
    PCLM =   0.02 
    PDIBLC1 =  0.001 
    PDIBLC2 =  0.001 
    PDIBLCB = -0.005 
    PSCBE1 = 8.14e+08 
    PSCBE2 =  1e-07 
    PVAG =  1e-20 
    WR =      1 
    DWG =      0 
    DWB =      0 
    XW =      0 
    XWREF =      0 
    XL = -2e-08 
    XLREF = -2e-08 
    B0 =      0 
    B1 =      0 
    ALPHA0 =  0.074 
    ALPHA1 =  0.005 
    AGIDL = 0.0002 
    BGIDL = 2.1e+09 
    CGIDL = 0.0002 
    PHIN =      0 
    EGIDL =    0.8 
    AIGC =   0.02 
    BIGC = 0.0027 
    CIGC =  0.002 
    AIGSD =   0.02 
    BIGSD = 0.0027 
    CIGSD =  0.002 
    AIGBACC =  0.012 
    BIGBACC = 0.0028 
    CIGBACC =  0.002 
    AIGBINV =  0.014 
    BIGBINV =  0.004 
    CIGBINV =  0.004 
    NIGC =      1 
    NIGBINV =      3 
    NIGBACC =      1 
    NTOX =      1 
    EIGBINV =    1.1 
    PIGCD =      1 
    POXEDGE =      1 
    XRCRG1 =     12 
    TNOIA =    1.5 
    TNOIB =    3.5 
    NTNOI =      1 
    XRCRG2 =      5 
    BETA0 =     30 
    IJTHDFWD =   0.01 
    IJTHSFWD =   0.01 
    IJTHDREV =  0.001 
    IJTHSREV =  0.001 
    XJBVD =      1 
    XJBVS =      1 
    BVD =     10 
    BVS =     10 
    VFB =  -0.55 
    GBMIN =  1e-10 
    RBDB =     15 
    RBPB =      5 
    RBSB =     15 
    RBPS =     15 
    RBPD =     15 
    CGSL = 2.653e-10 
    CGDL = 2.653e-10 
    CKAPPAS =   0.03 
    CKAPPAD =   0.03 
    CF = 1.289e-10 
    CLC =  1e-07 
    CLE =    0.6 
    DWC =  5e-09 
    DLC = 3.75e-09 
    DLCIG = 3.75e-09 
    DWJ =      0 
    VFBCV =     -1 
    ACDE =      1 
    MOIN =     15 
    NOFF =    0.9 
    VOFFCV =   0.02 
    DMCG =      0 
    DMCI =      0 
    DMDG =      0 
    DMCGT =      0 
    XGW =      0 
    XGL =      0 
    RSHG =    0.4 
    NGCON =      1 
    TCJ =  0.001 
    TPB =  0.005 
    TCJSW =  0.001 
    TPBSW =  0.005 
    TCJSWG =  0.001 
    TPBSWG =  0.005 
    SK0 =      0 
    SK1 =      0 
    SK2 =      0 
    SL =  2e-06 
    SW =  2e-06 
    K =      0 
    TNOM =  300.1 
    CGSO = 1.1e-10 
    CGDO = 1.1e-10 
    CGBO = 2.56e-11 
    XPART =      0 
    RSH =      5 
    JSS = 0.0001 
    JSWS =  1e-11 
    JSWGS =  1e-10 
    PBS =      1 
    MJS =    0.5 
    PBSWS =      1 
    MJSWS =   0.33 
    CJS = 0.0005 
    CJSWS =  5e-10 
    NJS =      1 
    PBSWGS =      1 
    MJSWGS =   0.33 
    CJSWGS =  3e-10 
    XTIS =      3 
    JSD = 0.0001 
    JSWD =  1e-11 
    JSWGD =  1e-10 
    PBD =      1 
    MJD =    0.5 
    PBSWD =      1 
    MJSWD =   0.33 
    CJD = 0.0005 
    CJSWD =  5e-10 
    NJD =      1 
    PBSWGD =      1 
    MJSWGD =   0.33 
    CJSWGD =  5e-10 
    XTID =      3 
    LMLT =      1 
    WMLT =      1 
    LINT = 3.75e-09 
    LL =      0 
    LLC =      0 
    LLN =      1 
    LW =      0 
    LWC =      0 
    LWN =      1 
    LWL =      0 
    LWLC =      0 
    LMIN =      0 
    LMAX =      1 
    WINT =  5e-09 
    WL =      0 
    WLC =      0 
    WLN =      1 
    WW =      0 
    WWC =      0 
    WWN =      1 
    WWL =      0 
    WWLC =      0 
    WMIN =      0 
    WMAX =      1 
    NOIA = 6.25e+41 
    NOIB = 3.125e+26 
    NOIC = 8.75e+09 
    EM = 4.1e+07 
    EF =      1 
    AF =      1 
    KF =      0 
    TRS =      0 
    TRD =      0 
 Model file: /opt/cadence/gpdk045/gpdk045_v_6_0/models/hspice/g45p1svt.inc
 Model line:            3
 Model Name: g45p1svt  
 BSIM4 Model (Level 54)
    MOBMOD = 0
    BINUNIT = 1
    PARAMCHK = 1
    CAPMOD = 2
    DIOMOD = 1
    RDSMOD = 0
    TRNQSMOD = 0
    ACNQSMOD = 0
    RBODYMOD = 1
    RGATEMOD = 1
    PERMOD = 1
    GEOMOD = 1
    RGEOMOD = 0
    FNOIMOD = 1
    TNOIMOD = 0
    IGCMOD = 1
    IGBMOD = 1
    STIMOD = 0
    VERSION =      4 
    TOXREF = 1.3e-09 
    TOXE = 1.26e-09 
    TOXP =  1e-09 
    TOXM = 1.26e-09 
    DTOX = 2.6e-10 
    EPSROX =    3.9 
    CDSC =      0 
    CDSCB =      0 
    CDSCD =      0 
    CIT =      0 
    NFACTOR =   2.22 
    XJ = 1.98e-08 
    VSAT = 6.2e+04 
    A0 =      1 
    AGS =  1e-20 
    A1 =      0 
    A2 =      1 
    AT = 3.3e+04 
    KETA = -0.047 
    NSUB =  6e+16 
    NDEP = 2.44e+18 
    NSD =  2e+20 
    NGATE =  2e+20 
    GAMMA1 =      0 
    GAMMA2 =      0 
    VBX =      0 
    VBM =     -3 
    XT = 1.55e-07 
    K1 =    0.4 
    KT1 =  -0.11 
    KT1L =      0 
    KT2 =  0.022 
    K2 =  -0.01 
    K3 =      0 
    K3B =      0 
    LPE0 =      0 
    LPEB =      0 
    DVTP0 =  1e-11 
    DVTP1 =   0.05 
    W0 = 2.5e-06 
    DVT0 =      1 
    DVT1 =      2 
    DVT2 = -0.032 
    DVT0W =      0 
    DVT1W =      0 
    DVT2W =      0 
    DROUT =   0.56 
    DSUB =    0.1 
    VTH0 = -0.3842 
    EU =      1 
    UA =  2e-09 
    UA1 = 4.31e-09 
    UB =  5e-19 
    UB1 = 7.61e-18 
    UC =      0 
    UC1 = -5.6e-11 
    U0 =   0.02 
    UTE =   -1.5 
    VOFF = -0.126 
    VOFFL =      0 
    MINV =   0.05 
    FPROUT =    0.2 
    PDITS =   0.08 
    PDITSD =   0.23 
    PDITSL = 2.3e+06 
    DELTA =   0.01 
    RDSW =    155 
    RDSWMIN =      0 
    RDWMIN =      0 
    RSWMIN =      0 
    RDW =     75 
    RSW =     75 
    PRWG =      0 
    PRWB =      0 
    PRT =      0 
    ETA0 = 0.0055 
    ETAB =      0 
    PCLM =   0.12 
    PDIBLC1 =  0.001 
    PDIBLC2 =  0.001 
    PDIBLCB = 3.4e-08 
    PSCBE1 = 8.14e+08 
    PSCBE2 = 9.58e-07 
    PVAG =  1e-20 
    WR =      1 
    DWG =      0 
    DWB =      0 
    XW =      0 
    XWREF =      0 
    XL = -2e-08 
    XLREF = -2e-08 
    B0 =      0 
    B1 =      0 
    ALPHA0 =  0.074 
    ALPHA1 =  0.005 
    AGIDL = 0.0002 
    BGIDL = 2.1e+09 
    CGIDL = 0.0002 
    PHIN =      0 
    EGIDL =    0.8 
    AIGC = 0.01069 
    BIGC = 0.001261 
    CIGC = 0.0008 
    AIGSD = 0.01069 
    BIGSD = 0.001261 
    CIGSD = 0.0008 
    AIGBACC =  0.012 
    BIGBACC = 0.0028 
    CIGBACC =  0.002 
    AIGBINV =  0.014 
    BIGBINV =  0.004 
    CIGBINV =  0.004 
    NIGC =      1 
    NIGBINV =      3 
    NIGBACC =      1 
    NTOX =      1 
    EIGBINV =    1.1 
    PIGCD =      1 
    POXEDGE =      1 
    XRCRG1 =     12 
    TNOIA =    1.5 
    TNOIB =    3.5 
    NTNOI =      1 
    XRCRG2 =      5 
    BETA0 =     30 
    IJTHDFWD =   0.01 
    IJTHSFWD =   0.01 
    IJTHDREV =  0.001 
    IJTHSREV =  0.001 
    XJBVD =      1 
    XJBVS =      1 
    BVD =     10 
    BVS =     10 
    VFB =   0.55 
    GBMIN =  1e-10 
    RBDB =     15 
    RBPB =      5 
    RBSB =     15 
    RBPS =     15 
    RBPD =     15 
    CGSL = 2.653e-10 
    CGDL = 2.653e-10 
    CKAPPAS =   0.03 
    CKAPPAD =   0.03 
    CF = 1.267e-10 
    CLC =  1e-07 
    CLE =    0.6 
    DWC =  5e-09 
    DLC = 3.75e-09 
    DLCIG = 3.75e-09 
    DWJ =      0 
    VFBCV =     -1 
    ACDE =      1 
    MOIN =     15 
    NOFF =    0.9 
    VOFFCV =   0.02 
    DMCG =      0 
    DMCI =      0 
    DMDG =      0 
    DMCGT =      0 
    XGW =      0 
    XGL =      0 
    RSHG =    0.4 
    NGCON =      1 
    TCJ =  0.001 
    TPB =  0.005 
    TCJSW =  0.001 
    TPBSW =  0.005 
    TCJSWG =  0.001 
    TPBSWG =  0.005 
    SK0 =      0 
    SK1 =      0 
    SK2 =      0 
    SL =  2e-06 
    SW =  2e-06 
    K =      0 
    TNOM =  300.1 
    CGSO = 1.1e-10 
    CGDO = 1.1e-10 
    CGBO = 2.56e-11 
    XPART =      0 
    RSH =      5 
    JSS = 0.0001 
    JSWS =  1e-11 
    JSWGS =  1e-10 
    PBS =      1 
    MJS =    0.5 
    PBSWS =      1 
    MJSWS =   0.33 
    CJS = 0.0005 
    CJSWS =  5e-10 
    NJS =      1 
    PBSWGS =      1 
    MJSWGS =   0.33 
    CJSWGS =  3e-10 
    XTIS =      3 
    JSD = 0.0001 
    JSWD =  1e-11 
    JSWGD =  1e-10 
    PBD =      1 
    MJD =    0.5 
    PBSWD =      1 
    MJSWD =   0.33 
    CJD = 0.0005 
    CJSWD =  5e-10 
    NJD =      1 
    PBSWGD =      1 
    MJSWGD =   0.33 
    CJSWGD =  5e-10 
    XTID =      3 
    LMLT =      1 
    WMLT =      1 
    LINT = 3.75e-09 
    LL =      0 
    LLC =      0 
    LLN =      1 
    LW =      0 
    LWC =      0 
    LWN =      1 
    LWL =      0 
    LWLC =      0 
    LMIN =      0 
    LMAX =      1 
    WINT =  5e-09 
    WL =      0 
    WLC =      0 
    WLN =      1 
    WW =      0 
    WWC =      0 
    WWN =      1 
    WWL =      0 
    WWLC =      0 
    WMIN =      0 
    WMAX =      1 
    NOIA = 6.188e+40 
    NOIB = 1.5e+25 
    NOIC = 8.75e+09 
    EM = 4.1e+07 
    EF =      1 
    AF =      1 
    KF =      0 
    TRS =      0 
    TRD =      0 
  **warning** (mult.sp:30) Both nodes of element vgnd are connected together; Line ignored.
  **info** (mult.sp:23) DC voltage reset to initial transient source value in source 0:vpulse. new dc=0.0000D+00
  **warning** (g45n1svt:xmult1.xi23.mnm2 (mult.sp:37)) Warning:  Acde = 0.276941 may be too small in BSIM4 model with w=1.2e-07 l=4.5e-08.
 ******  
 * first line is treated as comment

 ****** circuit element summary tnom=  25.000 temp=  25.000 ******


 **** independent sources

     name         node1        node2      dc volt    ac mag    ac phase    type
  vpulse  phi               0                    0.         0.         0.      pulse
             initial value     0.     
             pulsed value.     1.1000 
             delay time...     0.     
             risetime.....    50.0000p
             falltime.....    50.0000p
             width........   200.0000p
             period.......   500.0000p

  vsupply  vdd               0                    1.1000     0.         0.      dc   


 **** mosfets


 **** BSIM4 Model (Level 54)
  
  
                                                                          
 element name        2:mnm2        2:mnm3        2:mnm4        2:mpm0     
 drain               1:net079      2:net14       2:net24       2:net14    
 gate                2:net14       0:b3          0:a3          0:b3       
 source              0:0           2:net24       0:0           0:vdd      
 bulk                0:0           0:0           0:0           0:vdd      
 model               0:g45n1svt    0:g45n1svt    0:g45n1svt    0:g45p1svt 
 w eff             110.0000n     230.0000n     230.0000n     230.0000n    
 l eff              17.5000n      17.5000n      17.5000n      17.5000n    
 rd eff              0.            0.            0.            0.         
 rs eff              0.            0.            0.            0.         
 cdsat              12.7102a      23.4075a      23.4075a      23.4075a    
 cssat              12.7102a      23.4075a      23.4075a      23.4075a    
 capbd             267.8632a     396.0064a     396.0064a     396.0064a    
 capbs             243.9112a     348.1024a     348.1024a     348.1024a    
 temp               25.0000       25.0000       25.0000       25.0000     
 aic                                                                      
 nf                  1.0000        1.0000        1.0000        1.0000     
 min                 0.            0.            0.            0.         
 rbdb               15.0000       15.0000       15.0000       15.0000     
 rbsb               15.0000       15.0000       15.0000       15.0000     
 rbpb                5.0000        5.0000        5.0000        5.0000     
 rbps               15.0000       15.0000       15.0000       15.0000     
 rbpd               15.0000       15.0000       15.0000       15.0000     
 trnqsmod            0.            0.            0.            0.         
 acnqsmod            0.            0.            0.            0.         
 rbodymod            1.0000        1.0000        1.0000        1.0000     
 rgatemod            1.0000        1.0000        1.0000        1.0000     
 geomod              1.0000        1.0000        1.0000        1.0000     
 rgeomod             0.            0.            0.            0.         
 delvto              0.            0.            0.            0.         
 mulu0               1.0000        1.0000        1.0000        1.0000     
 delk1               0.            0.            0.            0.         
 delnfct             0.            0.            0.            0.         
 deltox              0.            0.            0.            0.         
 sa                  0.            0.            0.            0.         
 sb                  0.            0.            0.            0.         
 sd                  0.            0.            0.            0.         
 saeff               0.            0.            0.            0.         
 sbeff               0.            0.            0.            0.         
 m                   1.0000        1.0000        1.0000        1.0000     
 w drawn           120.0000n     240.0000n     240.0000n     240.0000n    
 l drawn            45.0000n      45.0000n      45.0000n      45.0000n    
  
  
                                                                          
 element name        2:mpm1        2:mpm2        3:mnm2        3:mnm3     
 drain               2:net14       1:net079      1:net051      3:net14    
 gate                0:a3          2:net14       3:net14       0:b2       
 source              0:vdd         0:vdd         0:0           3:net24    
 bulk                0:vdd         0:vdd         0:0           0:0        
 model               0:g45p1svt    0:g45p1svt    0:g45n1svt    0:g45n1svt 
 w eff             230.0000n     230.0000n     110.0000n     230.0000n    
 l eff              17.5000n      17.5000n      17.5000n      17.5000n    
 rd eff              0.            0.            0.            0.         
 rs eff              0.            0.            0.            0.         
 cdsat              23.4075a      23.4075a      12.7102a      23.4075a    
 cssat              23.4075a      23.4075a      12.7102a      23.4075a    
 capbd             396.0064a     396.0064a     267.8632a     396.0064a    
 capbs             348.1024a     348.1024a     243.9112a     348.1024a    
 temp               25.0000       25.0000       25.0000       25.0000     
 aic                                                                      
 nf                  1.0000        1.0000        1.0000        1.0000     
 min                 0.            0.            0.            0.         
 rbdb               15.0000       15.0000       15.0000       15.0000     
 rbsb               15.0000       15.0000       15.0000       15.0000     
 rbpb                5.0000        5.0000        5.0000        5.0000     
 rbps               15.0000       15.0000       15.0000       15.0000     
 rbpd               15.0000       15.0000       15.0000       15.0000     
 trnqsmod            0.            0.            0.            0.         
 acnqsmod            0.            0.            0.            0.         
 rbodymod            1.0000        1.0000        1.0000        1.0000     
 rgatemod            1.0000        1.0000        1.0000        1.0000     
 geomod              1.0000        1.0000        1.0000        1.0000     
 rgeomod             0.            0.            0.            0.         
 delvto              0.            0.            0.            0.         
 mulu0               1.0000        1.0000        1.0000        1.0000     
 delk1               0.            0.            0.            0.         
 delnfct             0.            0.            0.            0.         
 deltox              0.            0.            0.            0.         
 sa                  0.            0.            0.            0.         
 sb                  0.            0.            0.            0.         
 sd                  0.            0.            0.            0.         
 saeff               0.            0.            0.            0.         
 sbeff               0.            0.            0.            0.         
 m                   1.0000        1.0000        1.0000        1.0000     
 w drawn           240.0000n     240.0000n     120.0000n     240.0000n    
 l drawn            45.0000n      45.0000n      45.0000n      45.0000n    
  
  
                                                                          
 element name        3:mnm4        3:mpm0        3:mpm1        3:mpm2     
 drain               3:net24       3:net14       3:net14       1:net051   
 gate                0:a0          0:b2          0:a0          3:net14    
 source              0:0           0:vdd         0:vdd         0:vdd      
 bulk                0:0           0:vdd         0:vdd         0:vdd      
 model               0:g45n1svt    0:g45p1svt    0:g45p1svt    0:g45p1svt 
 w eff             230.0000n     230.0000n     230.0000n     230.0000n    
 l eff              17.5000n      17.5000n      17.5000n      17.5000n    
 rd eff              0.            0.            0.            0.         
 rs eff              0.            0.            0.            0.         
 cdsat              23.4075a      23.4075a      23.4075a      23.4075a    
 cssat              23.4075a      23.4075a      23.4075a      23.4075a    
 capbd             396.0064a     396.0064a     396.0064a     396.0064a    
 capbs             348.1024a     348.1024a     348.1024a     348.1024a    
 temp               25.0000       25.0000       25.0000       25.0000     
 aic                                                                      
 nf                  1.0000        1.0000        1.0000        1.0000     
 min                 0.            0.            0.            0.         
 rbdb               15.0000       15.0000       15.0000       15.0000     
 rbsb               15.0000       15.0000       15.0000       15.0000     
 rbpb                5.0000        5.0000        5.0000        5.0000     
 rbps               15.0000       15.0000       15.0000       15.0000     
 rbpd               15.0000       15.0000       15.0000       15.0000     
 trnqsmod            0.            0.            0.            0.         
 acnqsmod            0.            0.            0.            0.         
 rbodymod            1.0000        1.0000        1.0000        1.0000     
 rgatemod            1.0000        1.0000        1.0000        1.0000     
 geomod              1.0000        1.0000        1.0000        1.0000     
 rgeomod             0.            0.            0.            0.         
 delvto              0.            0.            0.            0.         
 mulu0               1.0000        1.0000        1.0000        1.0000     
 delk1               0.            0.            0.            0.         
 delnfct             0.            0.            0.            0.         
 deltox              0.            0.            0.            0.         
 sa                  0.            0.            0.            0.         
 sb                  0.            0.            0.            0.         
 sd                  0.            0.            0.            0.         
 saeff               0.            0.            0.            0.         
 sbeff               0.            0.            0.            0.         
 m                   1.0000        1.0000        1.0000        1.0000     
 w drawn           240.0000n     240.0000n     240.0000n     240.0000n    
 l drawn            45.0000n      45.0000n      45.0000n      45.0000n    
  
  
                                                                          
 element name        4:mnm2        4:mnm3        4:mnm4        4:mpm0     
 drain               1:net050      4:net14       4:net24       4:net14    
 gate                4:net14       0:b2          0:a1          0:b2       
 source              0:0           4:net24       0:0           0:vdd      
 bulk                0:0           0:0           0:0           0:vdd      
 model               0:g45n1svt    0:g45n1svt    0:g45n1svt    0:g45p1svt 
 w eff             110.0000n     230.0000n     230.0000n     230.0000n    
 l eff              17.5000n      17.5000n      17.5000n      17.5000n    
 rd eff              0.            0.            0.            0.         
 rs eff              0.            0.            0.            0.         
 cdsat              12.7102a      23.4075a      23.4075a      23.4075a    
 cssat              12.7102a      23.4075a      23.4075a      23.4075a    
 capbd             267.8632a     396.0064a     396.0064a     396.0064a    
 capbs             243.9112a     348.1024a     348.1024a     348.1024a    
 temp               25.0000       25.0000       25.0000       25.0000     
 aic                                                                      
 nf                  1.0000        1.0000        1.0000        1.0000     
 min                 0.            0.            0.            0.         
 rbdb               15.0000       15.0000       15.0000       15.0000     
 rbsb               15.0000       15.0000       15.0000       15.0000     
 rbpb                5.0000        5.0000        5.0000        5.0000     
 rbps               15.0000       15.0000       15.0000       15.0000     
 rbpd               15.0000       15.0000       15.0000       15.0000     
 trnqsmod            0.            0.            0.            0.         
 acnqsmod            0.            0.            0.            0.         
 rbodymod            1.0000        1.0000        1.0000        1.0000     
 rgatemod            1.0000        1.0000        1.0000        1.0000     
 geomod              1.0000        1.0000        1.0000        1.0000     
 rgeomod             0.            0.            0.            0.         
 delvto              0.            0.            0.            0.         
 mulu0               1.0000        1.0000        1.0000        1.0000     
 delk1               0.            0.            0.            0.         
 delnfct             0.            0.            0.            0.         
 deltox              0.            0.            0.            0.         
 sa                  0.            0.            0.            0.         
 sb                  0.            0.            0.            0.         
 sd                  0.            0.            0.            0.         
 saeff               0.            0.            0.            0.         
 sbeff               0.            0.            0.            0.         
 m                   1.0000        1.0000        1.0000        1.0000     
 w drawn           120.0000n     240.0000n     240.0000n     240.0000n    
 l drawn            45.0000n      45.0000n      45.0000n      45.0000n    
  
  
                                                                          
 element name        4:mpm1        4:mpm2        5:mnm2        5:mnm3     
 drain               4:net14       1:net050      1:net049      5:net14    
 gate                0:a1          4:net14       5:net14       0:b2       
 source              0:vdd         0:vdd         0:0           5:net24    
 bulk                0:vdd         0:vdd         0:0           0:0        
 model               0:g45p1svt    0:g45p1svt    0:g45n1svt    0:g45n1svt 
 w eff             230.0000n     230.0000n     110.0000n     230.0000n    
 l eff              17.5000n      17.5000n      17.5000n      17.5000n    
 rd eff              0.            0.            0.            0.         
 rs eff              0.            0.            0.            0.         
 cdsat              23.4075a      23.4075a      12.7102a      23.4075a    
 cssat              23.4075a      23.4075a      12.7102a      23.4075a    
 capbd             396.0064a     396.0064a     267.8632a     396.0064a    
 capbs             348.1024a     348.1024a     243.9112a     348.1024a    
 temp               25.0000       25.0000       25.0000       25.0000     
 aic                                                                      
 nf                  1.0000        1.0000        1.0000        1.0000     
 min                 0.            0.            0.            0.         
 rbdb               15.0000       15.0000       15.0000       15.0000     
 rbsb               15.0000       15.0000       15.0000       15.0000     
 rbpb                5.0000        5.0000        5.0000        5.0000     
 rbps               15.0000       15.0000       15.0000       15.0000     
 rbpd               15.0000       15.0000       15.0000       15.0000     
 trnqsmod            0.            0.            0.            0.         
 acnqsmod            0.            0.            0.            0.         
 rbodymod            1.0000        1.0000        1.0000        1.0000     
 rgatemod            1.0000        1.0000        1.0000        1.0000     
 geomod              1.0000        1.0000        1.0000        1.0000     
 rgeomod             0.            0.            0.            0.         
 delvto              0.            0.            0.            0.         
 mulu0               1.0000        1.0000        1.0000        1.0000     
 delk1               0.            0.            0.            0.         
 delnfct             0.            0.            0.            0.         
 deltox              0.            0.            0.            0.         
 sa                  0.            0.            0.            0.         
 sb                  0.            0.            0.            0.         
 sd                  0.            0.            0.            0.         
 saeff               0.            0.            0.            0.         
 sbeff               0.            0.            0.            0.         
 m                   1.0000        1.0000        1.0000        1.0000     
 w drawn           240.0000n     240.0000n     120.0000n     240.0000n    
 l drawn            45.0000n      45.0000n      45.0000n      45.0000n    
  
  
                                                                          
 element name        5:mnm4        5:mpm0        5:mpm1        5:mpm2     
 drain               5:net24       5:net14       5:net14       1:net049   
 gate                0:a2          0:b2          0:a2          5:net14    
 source              0:0           0:vdd         0:vdd         0:vdd      
 bulk                0:0           0:vdd         0:vdd         0:vdd      
 model               0:g45n1svt    0:g45p1svt    0:g45p1svt    0:g45p1svt 
 w eff             230.0000n     230.0000n     230.0000n     230.0000n    
 l eff              17.5000n      17.5000n      17.5000n      17.5000n    
 rd eff              0.            0.            0.            0.         
 rs eff              0.            0.            0.            0.         
 cdsat              23.4075a      23.4075a      23.4075a      23.4075a    
 cssat              23.4075a      23.4075a      23.4075a      23.4075a    
 capbd             396.0064a     396.0064a     396.0064a     396.0064a    
 capbs             348.1024a     348.1024a     348.1024a     348.1024a    
 temp               25.0000       25.0000       25.0000       25.0000     
 aic                                                                      
 nf                  1.0000        1.0000        1.0000        1.0000     
 min                 0.            0.            0.            0.         
 rbdb               15.0000       15.0000       15.0000       15.0000     
 rbsb               15.0000       15.0000       15.0000       15.0000     
 rbpb                5.0000        5.0000        5.0000        5.0000     
 rbps               15.0000       15.0000       15.0000       15.0000     
 rbpd               15.0000       15.0000       15.0000       15.0000     
 trnqsmod            0.            0.            0.            0.         
 acnqsmod            0.            0.            0.            0.         
 rbodymod            1.0000        1.0000        1.0000        1.0000     
 rgatemod            1.0000        1.0000        1.0000        1.0000     
 geomod              1.0000        1.0000        1.0000        1.0000     
 rgeomod             0.            0.            0.            0.         
 delvto              0.            0.            0.            0.         
 mulu0               1.0000        1.0000        1.0000        1.0000     
 delk1               0.            0.            0.            0.         
 delnfct             0.            0.            0.            0.         
 deltox              0.            0.            0.            0.         
 sa                  0.            0.            0.            0.         
 sb                  0.            0.            0.            0.         
 sd                  0.            0.            0.            0.         
 saeff               0.            0.            0.            0.         
 sbeff               0.            0.            0.            0.         
 m                   1.0000        1.0000        1.0000        1.0000     
 w drawn           240.0000n     240.0000n     240.0000n     240.0000n    
 l drawn            45.0000n      45.0000n      45.0000n      45.0000n    
  
  
                                                                          
 element name        6:mnm2        6:mnm3        6:mnm4        6:mpm0     
 drain               1:net48       6:net14       6:net24       6:net14    
 gate                6:net14       0:b1          0:a0          0:b1       
 source              0:0           6:net24       0:0           0:vdd      
 bulk                0:0           0:0           0:0           0:vdd      
 model               0:g45n1svt    0:g45n1svt    0:g45n1svt    0:g45p1svt 
 w eff             110.0000n     230.0000n     230.0000n     230.0000n    
 l eff              17.5000n      17.5000n      17.5000n      17.5000n    
 rd eff              0.            0.            0.            0.         
 rs eff              0.            0.            0.            0.         
 cdsat              12.7102a      23.4075a      23.4075a      23.4075a    
 cssat              12.7102a      23.4075a      23.4075a      23.4075a    
 capbd             267.8632a     396.0064a     396.0064a     396.0064a    
 capbs             243.9112a     348.1024a     348.1024a     348.1024a    
 temp               25.0000       25.0000       25.0000       25.0000     
 aic                                                                      
 nf                  1.0000        1.0000        1.0000        1.0000     
 min                 0.            0.            0.            0.         
 rbdb               15.0000       15.0000       15.0000       15.0000     
 rbsb               15.0000       15.0000       15.0000       15.0000     
 rbpb                5.0000        5.0000        5.0000        5.0000     
 rbps               15.0000       15.0000       15.0000       15.0000     
 rbpd               15.0000       15.0000       15.0000       15.0000     
 trnqsmod            0.            0.            0.            0.         
 acnqsmod            0.            0.            0.            0.         
 rbodymod            1.0000        1.0000        1.0000        1.0000     
 rgatemod            1.0000        1.0000        1.0000        1.0000     
 geomod              1.0000        1.0000        1.0000        1.0000     
 rgeomod             0.            0.            0.            0.         
 delvto              0.            0.            0.            0.         
 mulu0               1.0000        1.0000        1.0000        1.0000     
 delk1               0.            0.            0.            0.         
 delnfct             0.            0.            0.            0.         
 deltox              0.            0.            0.            0.         
 sa                  0.            0.            0.            0.         
 sb                  0.            0.            0.            0.         
 sd                  0.            0.            0.            0.         
 saeff               0.            0.            0.            0.         
 sbeff               0.            0.            0.            0.         
 m                   1.0000        1.0000        1.0000        1.0000     
 w drawn           120.0000n     240.0000n     240.0000n     240.0000n    
 l drawn            45.0000n      45.0000n      45.0000n      45.0000n    
  
  
                                                                          
 element name        6:mpm1        6:mpm2        7:mnm2        7:mnm3     
 drain               6:net14       1:net48       1:net24       7:net14    
 gate                0:a0          6:net14       7:net14       0:b1       
 source              0:vdd         0:vdd         0:0           7:net24    
 bulk                0:vdd         0:vdd         0:0           0:0        
 model               0:g45p1svt    0:g45p1svt    0:g45n1svt    0:g45n1svt 
 w eff             230.0000n     230.0000n     110.0000n     230.0000n    
 l eff              17.5000n      17.5000n      17.5000n      17.5000n    
 rd eff              0.            0.            0.            0.         
 rs eff              0.            0.            0.            0.         
 cdsat              23.4075a      23.4075a      12.7102a      23.4075a    
 cssat              23.4075a      23.4075a      12.7102a      23.4075a    
 capbd             396.0064a     396.0064a     267.8632a     396.0064a    
 capbs             348.1024a     348.1024a     243.9112a     348.1024a    
 temp               25.0000       25.0000       25.0000       25.0000     
 aic                                                                      
 nf                  1.0000        1.0000        1.0000        1.0000     
 min                 0.            0.            0.            0.         
 rbdb               15.0000       15.0000       15.0000       15.0000     
 rbsb               15.0000       15.0000       15.0000       15.0000     
 rbpb                5.0000        5.0000        5.0000        5.0000     
 rbps               15.0000       15.0000       15.0000       15.0000     
 rbpd               15.0000       15.0000       15.0000       15.0000     
 trnqsmod            0.            0.            0.            0.         
 acnqsmod            0.            0.            0.            0.         
 rbodymod            1.0000        1.0000        1.0000        1.0000     
 rgatemod            1.0000        1.0000        1.0000        1.0000     
 geomod              1.0000        1.0000        1.0000        1.0000     
 rgeomod             0.            0.            0.            0.         
 delvto              0.            0.            0.            0.         
 mulu0               1.0000        1.0000        1.0000        1.0000     
 delk1               0.            0.            0.            0.         
 delnfct             0.            0.            0.            0.         
 deltox              0.            0.            0.            0.         
 sa                  0.            0.            0.            0.         
 sb                  0.            0.            0.            0.         
 sd                  0.            0.            0.            0.         
 saeff               0.            0.            0.            0.         
 sbeff               0.            0.            0.            0.         
 m                   1.0000        1.0000        1.0000        1.0000     
 w drawn           240.0000n     240.0000n     120.0000n     240.0000n    
 l drawn            45.0000n      45.0000n      45.0000n      45.0000n    
  
  
                                                                          
 element name        7:mnm4        7:mpm0        7:mpm1        7:mpm2     
 drain               7:net24       7:net14       7:net14       1:net24    
 gate                0:a2          0:b1          0:a2          7:net14    
 source              0:0           0:vdd         0:vdd         0:vdd      
 bulk                0:0           0:vdd         0:vdd         0:vdd      
 model               0:g45n1svt    0:g45p1svt    0:g45p1svt    0:g45p1svt 
 w eff             230.0000n     230.0000n     230.0000n     230.0000n    
 l eff              17.5000n      17.5000n      17.5000n      17.5000n    
 rd eff              0.            0.            0.            0.         
 rs eff              0.            0.            0.            0.         
 cdsat              23.4075a      23.4075a      23.4075a      23.4075a    
 cssat              23.4075a      23.4075a      23.4075a      23.4075a    
 capbd             396.0064a     396.0064a     396.0064a     396.0064a    
 capbs             348.1024a     348.1024a     348.1024a     348.1024a    
 temp               25.0000       25.0000       25.0000       25.0000     
 aic                                                                      
 nf                  1.0000        1.0000        1.0000        1.0000     
 min                 0.            0.            0.            0.         
 rbdb               15.0000       15.0000       15.0000       15.0000     
 rbsb               15.0000       15.0000       15.0000       15.0000     
 rbpb                5.0000        5.0000        5.0000        5.0000     
 rbps               15.0000       15.0000       15.0000       15.0000     
 rbpd               15.0000       15.0000       15.0000       15.0000     
 trnqsmod            0.            0.            0.            0.         
 acnqsmod            0.            0.            0.            0.         
 rbodymod            1.0000        1.0000        1.0000        1.0000     
 rgatemod            1.0000        1.0000        1.0000        1.0000     
 geomod              1.0000        1.0000        1.0000        1.0000     
 rgeomod             0.            0.            0.            0.         
 delvto              0.            0.            0.            0.         
 mulu0               1.0000        1.0000        1.0000        1.0000     
 delk1               0.            0.            0.            0.         
 delnfct             0.            0.            0.            0.         
 deltox              0.            0.            0.            0.         
 sa                  0.            0.            0.            0.         
 sb                  0.            0.            0.            0.         
 sd                  0.            0.            0.            0.         
 saeff               0.            0.            0.            0.         
 sbeff               0.            0.            0.            0.         
 m                   1.0000        1.0000        1.0000        1.0000     
 w drawn           240.0000n     240.0000n     240.0000n     240.0000n    
 l drawn            45.0000n      45.0000n      45.0000n      45.0000n    
  
  
                                                                          
 element name        8:mnm2        8:mnm3        8:mnm4        8:mpm0     
 drain               1:net62       8:net14       8:net24       8:net14    
 gate                8:net14       0:b1          0:a1          0:b1       
 source              0:0           8:net24       0:0           0:vdd      
 bulk                0:0           0:0           0:0           0:vdd      
 model               0:g45n1svt    0:g45n1svt    0:g45n1svt    0:g45p1svt 
 w eff             110.0000n     230.0000n     230.0000n     230.0000n    
 l eff              17.5000n      17.5000n      17.5000n      17.5000n    
 rd eff              0.            0.            0.            0.         
 rs eff              0.            0.            0.            0.         
 cdsat              12.7102a      23.4075a      23.4075a      23.4075a    
 cssat              12.7102a      23.4075a      23.4075a      23.4075a    
 capbd             267.8632a     396.0064a     396.0064a     396.0064a    
 capbs             243.9112a     348.1024a     348.1024a     348.1024a    
 temp               25.0000       25.0000       25.0000       25.0000     
 aic                                                                      
 nf                  1.0000        1.0000        1.0000        1.0000     
 min                 0.            0.            0.            0.         
 rbdb               15.0000       15.0000       15.0000       15.0000     
 rbsb               15.0000       15.0000       15.0000       15.0000     
 rbpb                5.0000        5.0000        5.0000        5.0000     
 rbps               15.0000       15.0000       15.0000       15.0000     
 rbpd               15.0000       15.0000       15.0000       15.0000     
 trnqsmod            0.            0.            0.            0.         
 acnqsmod            0.            0.            0.            0.         
 rbodymod            1.0000        1.0000        1.0000        1.0000     
 rgatemod            1.0000        1.0000        1.0000        1.0000     
 geomod              1.0000        1.0000        1.0000        1.0000     
 rgeomod             0.            0.            0.            0.         
 delvto              0.            0.            0.            0.         
 mulu0               1.0000        1.0000        1.0000        1.0000     
 delk1               0.            0.            0.            0.         
 delnfct             0.            0.            0.            0.         
 deltox              0.            0.            0.            0.         
 sa                  0.            0.            0.            0.         
 sb                  0.            0.            0.            0.         
 sd                  0.            0.            0.            0.         
 saeff               0.            0.            0.            0.         
 sbeff               0.            0.            0.            0.         
 m                   1.0000        1.0000        1.0000        1.0000     
 w drawn           120.0000n     240.0000n     240.0000n     240.0000n    
 l drawn            45.0000n      45.0000n      45.0000n      45.0000n    
  
  
                                                                          
 element name        8:mpm1        8:mpm2        9:mnm2        9:mnm3     
 drain               8:net14       1:net62       1:net30       9:net14    
 gate                0:a1          8:net14       9:net14       0:b0       
 source              0:vdd         0:vdd         0:0           9:net24    
 bulk                0:vdd         0:vdd         0:0           0:0        
 model               0:g45p1svt    0:g45p1svt    0:g45n1svt    0:g45n1svt 
 w eff             230.0000n     230.0000n     110.0000n     230.0000n    
 l eff              17.5000n      17.5000n      17.5000n      17.5000n    
 rd eff              0.            0.            0.            0.         
 rs eff              0.            0.            0.            0.         
 cdsat              23.4075a      23.4075a      12.7102a      23.4075a    
 cssat              23.4075a      23.4075a      12.7102a      23.4075a    
 capbd             396.0064a     396.0064a     267.8632a     396.0064a    
 capbs             348.1024a     348.1024a     243.9112a     348.1024a    
 temp               25.0000       25.0000       25.0000       25.0000     
 aic                                                                      
 nf                  1.0000        1.0000        1.0000        1.0000     
 min                 0.            0.            0.            0.         
 rbdb               15.0000       15.0000       15.0000       15.0000     
 rbsb               15.0000       15.0000       15.0000       15.0000     
 rbpb                5.0000        5.0000        5.0000        5.0000     
 rbps               15.0000       15.0000       15.0000       15.0000     
 rbpd               15.0000       15.0000       15.0000       15.0000     
 trnqsmod            0.            0.            0.            0.         
 acnqsmod            0.            0.            0.            0.         
 rbodymod            1.0000        1.0000        1.0000        1.0000     
 rgatemod            1.0000        1.0000        1.0000        1.0000     
 geomod              1.0000        1.0000        1.0000        1.0000     
 rgeomod             0.            0.            0.            0.         
 delvto              0.            0.            0.            0.         
 mulu0               1.0000        1.0000        1.0000        1.0000     
 delk1               0.            0.            0.            0.         
 delnfct             0.            0.            0.            0.         
 deltox              0.            0.            0.            0.         
 sa                  0.            0.            0.            0.         
 sb                  0.            0.            0.            0.         
 sd                  0.            0.            0.            0.         
 saeff               0.            0.            0.            0.         
 sbeff               0.            0.            0.            0.         
 m                   1.0000        1.0000        1.0000        1.0000     
 w drawn           240.0000n     240.0000n     120.0000n     240.0000n    
 l drawn            45.0000n      45.0000n      45.0000n      45.0000n    
  
  
                                                                          
 element name        9:mnm4        9:mpm0        9:mpm1        9:mpm2     
 drain               9:net24       9:net14       9:net14       1:net30    
 gate                0:a2          0:b0          0:a2          9:net14    
 source              0:0           0:vdd         0:vdd         0:vdd      
 bulk                0:0           0:vdd         0:vdd         0:vdd      
 model               0:g45n1svt    0:g45p1svt    0:g45p1svt    0:g45p1svt 
 w eff             230.0000n     230.0000n     230.0000n     230.0000n    
 l eff              17.5000n      17.5000n      17.5000n      17.5000n    
 rd eff              0.            0.            0.            0.         
 rs eff              0.            0.            0.            0.         
 cdsat              23.4075a      23.4075a      23.4075a      23.4075a    
 cssat              23.4075a      23.4075a      23.4075a      23.4075a    
 capbd             396.0064a     396.0064a     396.0064a     396.0064a    
 capbs             348.1024a     348.1024a     348.1024a     348.1024a    
 temp               25.0000       25.0000       25.0000       25.0000     
 aic                                                                      
 nf                  1.0000        1.0000        1.0000        1.0000     
 min                 0.            0.            0.            0.         
 rbdb               15.0000       15.0000       15.0000       15.0000     
 rbsb               15.0000       15.0000       15.0000       15.0000     
 rbpb                5.0000        5.0000        5.0000        5.0000     
 rbps               15.0000       15.0000       15.0000       15.0000     
 rbpd               15.0000       15.0000       15.0000       15.0000     
 trnqsmod            0.            0.            0.            0.         
 acnqsmod            0.            0.            0.            0.         
 rbodymod            1.0000        1.0000        1.0000        1.0000     
 rgatemod            1.0000        1.0000        1.0000        1.0000     
 geomod              1.0000        1.0000        1.0000        1.0000     
 rgeomod             0.            0.            0.            0.         
 delvto              0.            0.            0.            0.         
 mulu0               1.0000        1.0000        1.0000        1.0000     
 delk1               0.            0.            0.            0.         
 delnfct             0.            0.            0.            0.         
 deltox              0.            0.            0.            0.         
 sa                  0.            0.            0.            0.         
 sb                  0.            0.            0.            0.         
 sd                  0.            0.            0.            0.         
 saeff               0.            0.            0.            0.         
 sbeff               0.            0.            0.            0.         
 m                   1.0000        1.0000        1.0000        1.0000     
 w drawn           240.0000n     240.0000n     240.0000n     240.0000n    
 l drawn            45.0000n      45.0000n      45.0000n      45.0000n    
  
  
                                                                          
 element name       10:mnm2       10:mnm3       10:mnm4       10:mpm0     
 drain               1:net47      10:net14      10:net24      10:net14    
 gate               10:net14       0:b0          0:a1          0:b0       
 source              0:0          10:net24       0:0           0:vdd      
 bulk                0:0           0:0           0:0           0:vdd      
 model               0:g45n1svt    0:g45n1svt    0:g45n1svt    0:g45p1svt 
 w eff             110.0000n     230.0000n     230.0000n     230.0000n    
 l eff              17.5000n      17.5000n      17.5000n      17.5000n    
 rd eff              0.            0.            0.            0.         
 rs eff              0.            0.            0.            0.         
 cdsat              12.7102a      23.4075a      23.4075a      23.4075a    
 cssat              12.7102a      23.4075a      23.4075a      23.4075a    
 capbd             267.8632a     396.0064a     396.0064a     396.0064a    
 capbs             243.9112a     348.1024a     348.1024a     348.1024a    
 temp               25.0000       25.0000       25.0000       25.0000     
 aic                                                                      
 nf                  1.0000        1.0000        1.0000        1.0000     
 min                 0.            0.            0.            0.         
 rbdb               15.0000       15.0000       15.0000       15.0000     
 rbsb               15.0000       15.0000       15.0000       15.0000     
 rbpb                5.0000        5.0000        5.0000        5.0000     
 rbps               15.0000       15.0000       15.0000       15.0000     
 rbpd               15.0000       15.0000       15.0000       15.0000     
 trnqsmod            0.            0.            0.            0.         
 acnqsmod            0.            0.            0.            0.         
 rbodymod            1.0000        1.0000        1.0000        1.0000     
 rgatemod            1.0000        1.0000        1.0000        1.0000     
 geomod              1.0000        1.0000        1.0000        1.0000     
 rgeomod             0.            0.            0.            0.         
 delvto              0.            0.            0.            0.         
 mulu0               1.0000        1.0000        1.0000        1.0000     
 delk1               0.            0.            0.            0.         
 delnfct             0.            0.            0.            0.         
 deltox              0.            0.            0.            0.         
 sa                  0.            0.            0.            0.         
 sb                  0.            0.            0.            0.         
 sd                  0.            0.            0.            0.         
 saeff               0.            0.            0.            0.         
 sbeff               0.            0.            0.            0.         
 m                   1.0000        1.0000        1.0000        1.0000     
 w drawn           120.0000n     240.0000n     240.0000n     240.0000n    
 l drawn            45.0000n      45.0000n      45.0000n      45.0000n    
  
  
                                                                          
 element name       10:mpm1       10:mpm2       11:mnm2       11:mnm3     
 drain              10:net14       1:net47       0:p0         11:net14    
 gate                0:a1         10:net14      11:net14       0:b0       
 source              0:vdd         0:vdd         0:0          11:net24    
 bulk                0:vdd         0:vdd         0:0           0:0        
 model               0:g45p1svt    0:g45p1svt    0:g45n1svt    0:g45n1svt 
 w eff             230.0000n     230.0000n     110.0000n     230.0000n    
 l eff              17.5000n      17.5000n      17.5000n      17.5000n    
 rd eff              0.            0.            0.            0.         
 rs eff              0.            0.            0.            0.         
 cdsat              23.4075a      23.4075a      12.7102a      23.4075a    
 cssat              23.4075a      23.4075a      12.7102a      23.4075a    
 capbd             396.0064a     396.0064a     267.8632a     396.0064a    
 capbs             348.1024a     348.1024a     243.9112a     348.1024a    
 temp               25.0000       25.0000       25.0000       25.0000     
 aic                                                                      
 nf                  1.0000        1.0000        1.0000        1.0000     
 min                 0.            0.            0.            0.         
 rbdb               15.0000       15.0000       15.0000       15.0000     
 rbsb               15.0000       15.0000       15.0000       15.0000     
 rbpb                5.0000        5.0000        5.0000        5.0000     
 rbps               15.0000       15.0000       15.0000       15.0000     
 rbpd               15.0000       15.0000       15.0000       15.0000     
 trnqsmod            0.            0.            0.            0.         
 acnqsmod            0.            0.            0.            0.         
 rbodymod            1.0000        1.0000        1.0000        1.0000     
 rgatemod            1.0000        1.0000        1.0000        1.0000     
 geomod              1.0000        1.0000        1.0000        1.0000     
 rgeomod             0.            0.            0.            0.         
 delvto              0.            0.            0.            0.         
 mulu0               1.0000        1.0000        1.0000        1.0000     
 delk1               0.            0.            0.            0.         
 delnfct             0.            0.            0.            0.         
 deltox              0.            0.            0.            0.         
 sa                  0.            0.            0.            0.         
 sb                  0.            0.            0.            0.         
 sd                  0.            0.            0.            0.         
 saeff               0.            0.            0.            0.         
 sbeff               0.            0.            0.            0.         
 m                   1.0000        1.0000        1.0000        1.0000     
 w drawn           240.0000n     240.0000n     120.0000n     240.0000n    
 l drawn            45.0000n      45.0000n      45.0000n      45.0000n    
  
  
                                                                          
 element name       11:mnm4       11:mpm0       11:mpm1       11:mpm2     
 drain              11:net24      11:net14      11:net14       0:p0       
 gate                0:a0          0:b0          0:a0         11:net14    
 source              0:0           0:vdd         0:vdd         0:vdd      
 bulk                0:0           0:vdd         0:vdd         0:vdd      
 model               0:g45n1svt    0:g45p1svt    0:g45p1svt    0:g45p1svt 
 w eff             230.0000n     230.0000n     230.0000n     230.0000n    
 l eff              17.5000n      17.5000n      17.5000n      17.5000n    
 rd eff              0.            0.            0.            0.         
 rs eff              0.            0.            0.            0.         
 cdsat              23.4075a      23.4075a      23.4075a      23.4075a    
 cssat              23.4075a      23.4075a      23.4075a      23.4075a    
 capbd             396.0064a     396.0064a     396.0064a     396.0064a    
 capbs             348.1024a     348.1024a     348.1024a     348.1024a    
 temp               25.0000       25.0000       25.0000       25.0000     
 aic                                                                      
 nf                  1.0000        1.0000        1.0000        1.0000     
 min                 0.            0.            0.            0.         
 rbdb               15.0000       15.0000       15.0000       15.0000     
 rbsb               15.0000       15.0000       15.0000       15.0000     
 rbpb                5.0000        5.0000        5.0000        5.0000     
 rbps               15.0000       15.0000       15.0000       15.0000     
 rbpd               15.0000       15.0000       15.0000       15.0000     
 trnqsmod            0.            0.            0.            0.         
 acnqsmod            0.            0.            0.            0.         
 rbodymod            1.0000        1.0000        1.0000        1.0000     
 rgatemod            1.0000        1.0000        1.0000        1.0000     
 geomod              1.0000        1.0000        1.0000        1.0000     
 rgeomod             0.            0.            0.            0.         
 delvto              0.            0.            0.            0.         
 mulu0               1.0000        1.0000        1.0000        1.0000     
 delk1               0.            0.            0.            0.         
 delnfct             0.            0.            0.            0.         
 deltox              0.            0.            0.            0.         
 sa                  0.            0.            0.            0.         
 sb                  0.            0.            0.            0.         
 sd                  0.            0.            0.            0.         
 saeff               0.            0.            0.            0.         
 sbeff               0.            0.            0.            0.         
 m                   1.0000        1.0000        1.0000        1.0000     
 w drawn           240.0000n     240.0000n     240.0000n     240.0000n    
 l drawn            45.0000n      45.0000n      45.0000n      45.0000n    
  
  
                                                                          
 element name       12:mnm1       12:mnm0       12:mpm1       12:mpm0     
 drain              12:net16       1:net081      1:net081      1:net081   
 gate                0:a2          0:b3          0:b3          0:a2       
 source              0:0          12:net16       0:vdd         0:vdd      
 bulk                0:0           0:0           0:vdd         0:vdd      
 model               0:g45n1svt    0:g45n1svt    0:g45p1svt    0:g45p1svt 
 w eff             230.0000n     230.0000n     230.0000n     230.0000n    
 l eff              17.5000n      17.5000n      17.5000n      17.5000n    
 rd eff              0.            0.            0.            0.         
 rs eff              0.            0.            0.            0.         
 cdsat              23.4075a      23.4075a      23.4075a      23.4075a    
 cssat              23.4075a      23.4075a      23.4075a      23.4075a    
 capbd             396.0064a     396.0064a     396.0064a     396.0064a    
 capbs             348.1024a     348.1024a     348.1024a     348.1024a    
 temp               25.0000       25.0000       25.0000       25.0000     
 aic                                                                      
 nf                  1.0000        1.0000        1.0000        1.0000     
 min                 0.            0.            0.            0.         
 rbdb               15.0000       15.0000       15.0000       15.0000     
 rbsb               15.0000       15.0000       15.0000       15.0000     
 rbpb                5.0000        5.0000        5.0000        5.0000     
 rbps               15.0000       15.0000       15.0000       15.0000     
 rbpd               15.0000       15.0000       15.0000       15.0000     
 trnqsmod            0.            0.            0.            0.         
 acnqsmod            0.            0.            0.            0.         
 rbodymod            1.0000        1.0000        1.0000        1.0000     
 rgatemod            1.0000        1.0000        1.0000        1.0000     
 geomod              1.0000        1.0000        1.0000        1.0000     
 rgeomod             0.            0.            0.            0.         
 delvto              0.            0.            0.            0.         
 mulu0               1.0000        1.0000        1.0000        1.0000     
 delk1               0.            0.            0.            0.         
 delnfct             0.            0.            0.            0.         
 deltox              0.            0.            0.            0.         
 sa                  0.            0.            0.            0.         
 sb                  0.            0.            0.            0.         
 sd                  0.            0.            0.            0.         
 saeff               0.            0.            0.            0.         
 sbeff               0.            0.            0.            0.         
 m                   1.0000        1.0000        1.0000        1.0000     
 w drawn           240.0000n     240.0000n     240.0000n     240.0000n    
 l drawn            45.0000n      45.0000n      45.0000n      45.0000n    
  
  
                                                                          
 element name       13:mnm1       13:mnm0       13:mpm1       13:mpm0     
 drain              13:net16       1:net082      1:net082      1:net082   
 gate                0:a1          0:b3          0:b3          0:a1       
 source              0:0          13:net16       0:vdd         0:vdd      
 bulk                0:0           0:0           0:vdd         0:vdd      
 model               0:g45n1svt    0:g45n1svt    0:g45p1svt    0:g45p1svt 
 w eff             230.0000n     230.0000n     230.0000n     230.0000n    
 l eff              17.5000n      17.5000n      17.5000n      17.5000n    
 rd eff              0.            0.            0.            0.         
 rs eff              0.            0.            0.            0.         
 cdsat              23.4075a      23.4075a      23.4075a      23.4075a    
 cssat              23.4075a      23.4075a      23.4075a      23.4075a    
 capbd             396.0064a     396.0064a     396.0064a     396.0064a    
 capbs             348.1024a     348.1024a     348.1024a     348.1024a    
 temp               25.0000       25.0000       25.0000       25.0000     
 aic                                                                      
 nf                  1.0000        1.0000        1.0000        1.0000     
 min                 0.            0.            0.            0.         
 rbdb               15.0000       15.0000       15.0000       15.0000     
 rbsb               15.0000       15.0000       15.0000       15.0000     
 rbpb                5.0000        5.0000        5.0000        5.0000     
 rbps               15.0000       15.0000       15.0000       15.0000     
 rbpd               15.0000       15.0000       15.0000       15.0000     
 trnqsmod            0.            0.            0.            0.         
 acnqsmod            0.            0.            0.            0.         
 rbodymod            1.0000        1.0000        1.0000        1.0000     
 rgatemod            1.0000        1.0000        1.0000        1.0000     
 geomod              1.0000        1.0000        1.0000        1.0000     
 rgeomod             0.            0.            0.            0.         
 delvto              0.            0.            0.            0.         
 mulu0               1.0000        1.0000        1.0000        1.0000     
 delk1               0.            0.            0.            0.         
 delnfct             0.            0.            0.            0.         
 deltox              0.            0.            0.            0.         
 sa                  0.            0.            0.            0.         
 sb                  0.            0.            0.            0.         
 sd                  0.            0.            0.            0.         
 saeff               0.            0.            0.            0.         
 sbeff               0.            0.            0.            0.         
 m                   1.0000        1.0000        1.0000        1.0000     
 w drawn           240.0000n     240.0000n     240.0000n     240.0000n    
 l drawn            45.0000n      45.0000n      45.0000n      45.0000n    
  
  
                                                                          
 element name       14:mnm1       14:mnm0       14:mpm1       14:mpm0     
 drain              14:net16       1:net083      1:net083      1:net083   
 gate                0:a0          0:b3          0:b3          0:a0       
 source              0:0          14:net16       0:vdd         0:vdd      
 bulk                0:0           0:0           0:vdd         0:vdd      
 model               0:g45n1svt    0:g45n1svt    0:g45p1svt    0:g45p1svt 
 w eff             230.0000n     230.0000n     230.0000n     230.0000n    
 l eff              17.5000n      17.5000n      17.5000n      17.5000n    
 rd eff              0.            0.            0.            0.         
 rs eff              0.            0.            0.            0.         
 cdsat              23.4075a      23.4075a      23.4075a      23.4075a    
 cssat              23.4075a      23.4075a      23.4075a      23.4075a    
 capbd             396.0064a     396.0064a     396.0064a     396.0064a    
 capbs             348.1024a     348.1024a     348.1024a     348.1024a    
 temp               25.0000       25.0000       25.0000       25.0000     
 aic                                                                      
 nf                  1.0000        1.0000        1.0000        1.0000     
 min                 0.            0.            0.            0.         
 rbdb               15.0000       15.0000       15.0000       15.0000     
 rbsb               15.0000       15.0000       15.0000       15.0000     
 rbpb                5.0000        5.0000        5.0000        5.0000     
 rbps               15.0000       15.0000       15.0000       15.0000     
 rbpd               15.0000       15.0000       15.0000       15.0000     
 trnqsmod            0.            0.            0.            0.         
 acnqsmod            0.            0.            0.            0.         
 rbodymod            1.0000        1.0000        1.0000        1.0000     
 rgatemod            1.0000        1.0000        1.0000        1.0000     
 geomod              1.0000        1.0000        1.0000        1.0000     
 rgeomod             0.            0.            0.            0.         
 delvto              0.            0.            0.            0.         
 mulu0               1.0000        1.0000        1.0000        1.0000     
 delk1               0.            0.            0.            0.         
 delnfct             0.            0.            0.            0.         
 deltox              0.            0.            0.            0.         
 sa                  0.            0.            0.            0.         
 sb                  0.            0.            0.            0.         
 sd                  0.            0.            0.            0.         
 saeff               0.            0.            0.            0.         
 sbeff               0.            0.            0.            0.         
 m                   1.0000        1.0000        1.0000        1.0000     
 w drawn           240.0000n     240.0000n     240.0000n     240.0000n    
 l drawn            45.0000n      45.0000n      45.0000n      45.0000n    
  
  
                                                                          
 element name       15:mnm1       15:mnm0       15:mpm1       15:mpm0     
 drain              15:net16       1:net052      1:net052      1:net052   
 gate                0:a3          0:b2          0:b2          0:a3       
 source              0:0          15:net16       0:vdd         0:vdd      
 bulk                0:0           0:0           0:vdd         0:vdd      
 model               0:g45n1svt    0:g45n1svt    0:g45p1svt    0:g45p1svt 
 w eff             230.0000n     230.0000n     230.0000n     230.0000n    
 l eff              17.5000n      17.5000n      17.5000n      17.5000n    
 rd eff              0.            0.            0.            0.         
 rs eff              0.            0.            0.            0.         
 cdsat              23.4075a      23.4075a      23.4075a      23.4075a    
 cssat              23.4075a      23.4075a      23.4075a      23.4075a    
 capbd             396.0064a     396.0064a     396.0064a     396.0064a    
 capbs             348.1024a     348.1024a     348.1024a     348.1024a    
 temp               25.0000       25.0000       25.0000       25.0000     
 aic                                                                      
 nf                  1.0000        1.0000        1.0000        1.0000     
 min                 0.            0.            0.            0.         
 rbdb               15.0000       15.0000       15.0000       15.0000     
 rbsb               15.0000       15.0000       15.0000       15.0000     
 rbpb                5.0000        5.0000        5.0000        5.0000     
 rbps               15.0000       15.0000       15.0000       15.0000     
 rbpd               15.0000       15.0000       15.0000       15.0000     
 trnqsmod            0.            0.            0.            0.         
 acnqsmod            0.            0.            0.            0.         
 rbodymod            1.0000        1.0000        1.0000        1.0000     
 rgatemod            1.0000        1.0000        1.0000        1.0000     
 geomod              1.0000        1.0000        1.0000        1.0000     
 rgeomod             0.            0.            0.            0.         
 delvto              0.            0.            0.            0.         
 mulu0               1.0000        1.0000        1.0000        1.0000     
 delk1               0.            0.            0.            0.         
 delnfct             0.            0.            0.            0.         
 deltox              0.            0.            0.            0.         
 sa                  0.            0.            0.            0.         
 sb                  0.            0.            0.            0.         
 sd                  0.            0.            0.            0.         
[...]
 26:net13         26:mpm11:g       26:mpm6:g        26:mnm8:g        26:mnm0:g        
                  51:mnm0:d        51:mpm0:d                                          
 26:net15         26:mnm6:d        26:mnm4:s        26:mnm2:s                         
 26:net16         26:mnm3:d        26:mnm2:d        26:mnm0:s                         
 26:net25         26:mpm6:s        26:mpm2:d        26:mpm1:d                         
 26:net27         26:mpm4:s        26:mpm1:s        26:mpm0:d                         
 26:net30         26:mpm10:g       26:mpm9:g        26:mpm4:g        26:mpm2:g        
                  26:mnm13:g       26:mnm11:g       26:mnm4:g        26:mnm3:g        
                  52:mnm0:d        52:mpm0:d                                          
 26:net36         26:mpm12:g       26:mpm8:g        26:mpm5:g        26:mnm10:g       
                  26:mnm9:g        26:mnm7:g        53:mnm0:d        53:mpm0:d        
 26:net38         26:mnm5:d        26:mnm4:d        26:mnm1:s                         
 26:net41         26:mpm7:s        26:mpm4:d        26:mpm3:d                         
 26:net42         26:mpm5:d        26:mpm3:s        26:mpm2:s                         
 26:net43         26:mnm7:d        26:mnm5:s        26:mnm3:s                         
 26:net54         26:mnm11:d       26:mnm10:d       26:mnm8:s                         
 26:net55         26:mpm11:s       26:mpm9:d        26:mpm8:d                         
 26:net83         26:mnm13:d       26:mnm9:s                                          
 26:net84         26:mpm12:s       26:mpm10:d                                         
 27:net13         27:mpm11:g       27:mpm6:g        27:mnm8:g        27:mnm0:g        
                  54:mnm0:d        54:mpm0:d                                          
 27:net15         27:mnm6:d        27:mnm4:s        27:mnm2:s                         
 27:net16         27:mnm3:d        27:mnm2:d        27:mnm0:s                         
 27:net25         27:mpm6:s        27:mpm2:d        27:mpm1:d                         
 27:net27         27:mpm4:s        27:mpm1:s        27:mpm0:d                         
 27:net30         27:mpm10:g       27:mpm9:g        27:mpm4:g        27:mpm2:g        
                  27:mnm13:g       27:mnm11:g       27:mnm4:g        27:mnm3:g        
                  55:mnm0:d        55:mpm0:d                                          
 27:net36         27:mpm12:g       27:mpm8:g        27:mpm5:g        27:mnm10:g       
                  27:mnm9:g        27:mnm7:g        56:mnm0:d        56:mpm0:d        
 27:net38         27:mnm5:d        27:mnm4:d        27:mnm1:s                         
 27:net41         27:mpm7:s        27:mpm4:d        27:mpm3:d                         
 27:net42         27:mpm5:d        27:mpm3:s        27:mpm2:s                         
 27:net43         27:mnm7:d        27:mnm5:s        27:mnm3:s                         
 27:net54         27:mnm11:d       27:mnm10:d       27:mnm8:s                         
 27:net55         27:mpm11:s       27:mpm9:d        27:mpm8:d                         
 27:net83         27:mnm13:d       27:mnm9:s                                          
 27:net84         27:mpm12:s       27:mpm10:d                                         
 28:net13         28:mpm11:g       28:mpm6:g        28:mnm8:g        28:mnm0:g        
                  57:mnm0:d        57:mpm0:d                                          
 28:net15         28:mnm6:d        28:mnm4:s        28:mnm2:s                         
 28:net16         28:mnm3:d        28:mnm2:d        28:mnm0:s                         
 28:net25         28:mpm6:s        28:mpm2:d        28:mpm1:d                         
 28:net27         28:mpm4:s        28:mpm1:s        28:mpm0:d                         
 28:net30         28:mpm10:g       28:mpm9:g        28:mpm4:g        28:mpm2:g        
                  28:mnm13:g       28:mnm11:g       28:mnm4:g        28:mnm3:g        
                  58:mnm0:d        58:mpm0:d                                          
 28:net36         28:mpm12:g       28:mpm8:g        28:mpm5:g        28:mnm10:g       
                  28:mnm9:g        28:mnm7:g        59:mnm0:d        59:mpm0:d        
 28:net38         28:mnm5:d        28:mnm4:d        28:mnm1:s                         
 28:net41         28:mpm7:s        28:mpm4:d        28:mpm3:d                         
 28:net42         28:mpm5:d        28:mpm3:s        28:mpm2:s                         
 28:net43         28:mnm7:d        28:mnm5:s        28:mnm3:s                         
 28:net54         28:mnm11:d       28:mnm10:d       28:mnm8:s                         
 28:net55         28:mpm11:s       28:mpm9:d        28:mpm8:d                         
 28:net83         28:mnm13:d       28:mnm9:s                                          
 28:net84         28:mpm12:s       28:mpm10:d                                         
 29:net13         29:mpm11:g       29:mpm6:g        29:mnm8:g        29:mnm0:g        
                  60:mnm0:d        60:mpm0:d                                          
 29:net15         29:mnm6:d        29:mnm4:s        29:mnm2:s                         
 29:net16         29:mnm3:d        29:mnm2:d        29:mnm0:s                         
 29:net25         29:mpm6:s        29:mpm2:d        29:mpm1:d                         
 29:net27         29:mpm4:s        29:mpm1:s        29:mpm0:d                         
 29:net30         29:mpm10:g       29:mpm9:g        29:mpm4:g        29:mpm2:g        
                  29:mnm13:g       29:mnm11:g       29:mnm4:g        29:mnm3:g        
                  61:mnm0:d        61:mpm0:d                                          
 29:net36         29:mpm12:g       29:mpm8:g        29:mpm5:g        29:mnm10:g       
                  29:mnm9:g        29:mnm7:g        62:mnm0:d        62:mpm0:d        
 29:net38         29:mnm5:d        29:mnm4:d        29:mnm1:s                         
 29:net41         29:mpm7:s        29:mpm4:d        29:mpm3:d                         
 29:net42         29:mpm5:d        29:mpm3:s        29:mpm2:s                         
 29:net43         29:mnm7:d        29:mnm5:s        29:mnm3:s                         
 29:net54         29:mnm11:d       29:mnm10:d       29:mnm8:s                         
 29:net55         29:mpm11:s       29:mpm9:d        29:mpm8:d                         
 29:net83         29:mnm13:d       29:mnm9:s                                          
 29:net84         29:mpm12:s       29:mpm10:d                                         
 30:net13         30:mpm11:g       30:mpm6:g        30:mnm8:g        30:mnm0:g        
                  63:mnm0:d        63:mpm0:d                                          
 30:net15         30:mnm6:d        30:mnm4:s        30:mnm2:s                         
 30:net16         30:mnm3:d        30:mnm2:d        30:mnm0:s                         
 30:net25         30:mpm6:s        30:mpm2:d        30:mpm1:d                         
 30:net27         30:mpm4:s        30:mpm1:s        30:mpm0:d                         
 30:net30         30:mpm10:g       30:mpm9:g        30:mpm4:g        30:mpm2:g        
                  30:mnm13:g       30:mnm11:g       30:mnm4:g        30:mnm3:g        
                  64:mnm0:d        64:mpm0:d                                          
 30:net36         30:mpm12:g       30:mpm8:g        30:mpm5:g        30:mnm10:g       
                  30:mnm9:g        30:mnm7:g        65:mnm0:d        65:mpm0:d        
 30:net38         30:mnm5:d        30:mnm4:d        30:mnm1:s                         
 30:net41         30:mpm7:s        30:mpm4:d        30:mpm3:d                         
 30:net42         30:mpm5:d        30:mpm3:s        30:mpm2:s                         
 30:net43         30:mnm7:d        30:mnm5:s        30:mnm3:s                         
 30:net54         30:mnm11:d       30:mnm10:d       30:mnm8:s                         
 30:net55         30:mpm11:s       30:mpm9:d        30:mpm8:d                         
 30:net83         30:mnm13:d       30:mnm9:s                                          
 30:net84         30:mpm12:s       30:mpm10:d                                         
 31:net14         31:mnm2:g        31:mnm3:d        31:mpm0:d        31:mpm1:d        
                  31:mpm2:g                                                           
 31:net24         31:mnm3:s        31:mnm4:d                                          
 32:net010        32:mpm2:g        32:mnm0:g        66:mnm0:d        66:mpm0:d        
 32:net09         32:mpm1:g        32:mnm2:g        67:mnm0:d        67:mpm0:d        
 32:net22         32:mnm3:d        32:mnm1:s                                          
 32:net23         32:mnm2:d        32:mnm0:s                                          
 32:net24         32:mpm3:s        32:mpm1:d                                          
 32:net25         32:mpm2:s        32:mpm0:d                                          
 33:net14         33:mnm2:g        33:mnm3:d        33:mpm0:d        33:mpm1:d        
                  33:mpm2:g                                                           
 33:net24         33:mnm3:s        33:mnm4:d                                          
 34:net010        34:mpm2:g        34:mnm0:g        68:mnm0:d        68:mpm0:d        
 34:net09         34:mpm1:g        34:mnm2:g        69:mnm0:d        69:mpm0:d        
 34:net22         34:mnm3:d        34:mnm1:s                                          
 34:net23         34:mnm2:d        34:mnm0:s                                          
 34:net24         34:mpm3:s        34:mpm1:d                                          
 34:net25         34:mpm2:s        34:mpm0:d                                          
 35:net14         35:mnm2:g        35:mnm3:d        35:mpm0:d        35:mpm1:d        
                  35:mpm2:g                                                           
 35:net24         35:mnm3:s        35:mnm4:d                                          
 36:net010        36:mpm2:g        36:mnm0:g        70:mnm0:d        70:mpm0:d        
 36:net09         36:mpm1:g        36:mnm2:g        71:mnm0:d        71:mpm0:d        
 36:net22         36:mnm3:d        36:mnm1:s                                          
 36:net23         36:mnm2:d        36:mnm0:s                                          
 36:net24         36:mpm3:s        36:mpm1:d                                          
 36:net25         36:mpm2:s        36:mpm0:d                                          
 37:net14         37:mnm2:g        37:mnm3:d        37:mpm0:d        37:mpm1:d        
                  37:mpm2:g                                                           
 37:net24         37:mnm3:s        37:mnm4:d                                          
 38:net010        38:mpm2:g        38:mnm0:g        72:mnm0:d        72:mpm0:d        
 38:net09         38:mpm1:g        38:mnm2:g        73:mnm0:d        73:mpm0:d        
 38:net22         38:mnm3:d        38:mnm1:s                                          
 38:net23         38:mnm2:d        38:mnm0:s                                          
 38:net24         38:mpm3:s        38:mpm1:d                                          
 38:net25         38:mpm2:s        38:mpm0:d                                          
 **info** set option symb=1 internally to help for convergence.
 *****************************************************************
 ******  option summary
 ******
 runlvl  = 3         bypass  = 2.0000    
  Opening plot unit= 15
 file=mult.pa0

 **info** dc convergence successful at GMINDC ramping method 
 ******  
 * first line is treated as comment

 ****** operating point information tnom=  25.000 temp=  25.000 ******
 ****** operating point status is voltage   simulation time is     0.     
     node    =voltage       node    =voltage       node    =voltage

 + 0:a0      =   0.       0:a1      =   0.       0:a2      =   0.     
 + 0:a3      =   0.       0:ah      =   1.1000   0:b0      =   0.     
 + 0:b1      =   0.       0:b2      =   0.       0:b3      =   0.     
 + 0:p0      =  54.6778u  0:p1      = 145.4906u  0:p2      = 145.4439u
 + 0:p3      = 145.6497u  0:p4      = 497.2246u  0:p5      = 497.4064u
 + 0:p6      = 497.4842u  0:p7      = 145.6144u  0:phi     =   0.     
 + 0:vdd     =   1.1000   1:net0107 =   1.1000   1:net049  =  68.9410u
 + 1:net050  =  75.7655u  1:net051  =  68.7433u  1:net052  =   1.1000 
 + 1:net053  =  69.5198u  1:net054  =   5.3726u  1:net055  = 149.0823u
 + 1:net072  =   1.1000   1:net073  = 520.6769u  1:net076  = 520.6835u
 + 1:net078  =   1.0999   1:net079  =  68.9410u  1:net081  =   1.1000 
 + 1:net082  =   1.1000   1:net083  =   1.1000   1:net088  =   1.0999 
 + 1:net090  =   1.1000   1:net091  =   1.1000   1:net092  =   1.1000 
 + 1:net24   =  75.7640u  1:net30   =  68.8920u  1:net39   =   1.1000 
 + 1:net42   =   1.1000   1:net45   =  58.3285u  1:net47   =  62.1624u
 + 1:net48   =  68.7433u  1:net49   =   1.1000   1:net50   = 520.5700u
 + 1:net54   = 149.0823u  1:net55   =   1.0999   1:net59   =  10.0995u
 + 1:net60   = 509.6356u  1:net62   =  68.9410u  2:net14   =   1.1000 
 + 2:net24   =  97.8695m  3:net14   =   1.1000   3:net24   =  97.8695m
 + 4:net14   =   1.1000   4:net24   =  97.8695m  5:net14   =   1.1000 
 + 5:net24   =  97.8695m  6:net14   =   1.1000   6:net24   =  97.8695m
 + 7:net14   =   1.1000   7:net24   =  97.8695m  8:net14   =   1.1000 
 + 8:net24   =  97.8695m  9:net14   =   1.1000   9:net24   =  97.8695m
 +10:net14   =   1.1000  10:net24   =  97.8695m 11:net14   =   1.1000 
 +11:net24   =  97.8695m 12:net16   =  97.8694m 13:net16   =  97.8694m
 +14:net16   =  97.8693m 15:net16   =  97.8694m 16:net16   =  97.8694m
 +17:net16   =  97.8694m 22:net13   =  62.1813u 22:net15   =  98.8685u
 +22:net16   =   9.2536m 22:net25   = 274.4659m 22:net27   = 306.4240m
 +22:net30   =   1.1000  22:net36   =  79.7273u 22:net38   = 399.7505u
 +22:net41   =   1.0999  22:net42   =   1.0999  22:net43   =   9.2536m
 +22:net54   =  17.8896u 22:net55   =   1.1000  22:net83   =  17.8981u
 +22:net84   =   1.0999  23:net13   =  62.1818u 23:net15   =   9.2063m
 +23:net16   =   9.2063m 23:net25   = 274.4568m 23:net27   =   1.0999 
 +23:net30   =  79.4701u 23:net36   =   1.1000  23:net38   = 399.6877u
 +23:net41   =   1.0999  23:net42   = 306.4200m 23:net43   =  98.8531u
 +23:net54   =  17.8908u 23:net55   =   1.1000  23:net83   = 849.7375m
 +23:net84   =   1.1000  24:net13   =  62.1455u 24:net15   =   9.2062m
 +24:net16   =   9.2062m 24:net25   = 274.4567m 24:net27   =   1.0999 
 +24:net30   =  79.4701u 24:net36   =   1.1000  24:net38   = 399.5423u
 +24:net41   =   1.0999  24:net42   = 306.4200m 24:net43   =  98.8173u
 +24:net54   =  17.8908u 24:net55   =   1.1000  24:net83   = 849.7375m
 +24:net84   =   1.1000  25:net13   =   1.1000  25:net15   = 103.4504u
 +25:net16   = 418.3605u 25:net25   =   1.0999  25:net27   = 306.4091m
 +25:net30   =  79.4601u 25:net36   =  79.8600u 25:net38   =   9.2742m
 +25:net41   = 274.4210m 25:net42   =   1.0999  25:net43   =   9.2741m
 +25:net54   = 833.1510m 25:net55   =   1.1000  25:net83   =  97.8684m
 +25:net84   =   1.1000  26:net13   =   1.1000  26:net15   =   9.2127m
 +26:net16   = 418.3658u 26:net25   =   1.0999  26:net27   =   1.0999 
 +26:net30   =   1.1000  26:net36   =   1.1000  26:net38   =   9.2127m
 +26:net41   = 274.5291m 26:net42   = 306.4456m 26:net43   = 103.4511u
 +26:net54   =   2.2026u 26:net55   = 999.5215m 26:net83   =   3.0980u
 +26:net84   = 984.0868m 27:net13   =   1.1000  27:net15   =  22.1878u
 +27:net16   = 841.8567m 27:net25   =   1.0221  27:net27   =   1.0221 
 +27:net30   =   1.1000  27:net36   =  72.5447u 27:net38   =  81.8567u
 +27:net41   =   1.0999  27:net42   =   1.1000  27:net43   = 788.2985m
 +27:net54   =  74.9512u 27:net55   =   1.1000  27:net83   = 413.4959n
 +27:net84   = 250.5237m 28:net13   =   1.1000  28:net15   = 103.4288u
 +28:net16   = 418.2745u 28:net25   =   1.0999  28:net27   = 306.4380m
 +28:net30   =  79.4555u 28:net36   =  79.8257u 28:net38   =   9.2599m
 +28:net41   = 274.5170m 28:net42   =   1.0999  28:net43   =   9.2599m
 +28:net54   = 833.1509m 28:net55   =   1.1000  28:net83   =  97.8684m
 +28:net84   =   1.1000  29:net13   =   1.1000  29:net15   =  22.1594u
 +29:net16   = 841.8569m 29:net25   =   1.0220  29:net27   =   1.0220 
 +29:net30   =   1.1000  29:net36   =  72.4461u 29:net38   =  81.7423u
 +29:net41   =   1.1000  29:net42   =   1.1000  29:net43   = 788.2985m
 +29:net54   =  74.9512u 29:net55   =   1.1000  29:net83   = 413.4959n
 +29:net84   = 250.5237m 30:net13   =   1.1000  30:net15   =   9.2629m
 +30:net16   = 409.5012u 30:net25   =   1.0999  30:net27   =   1.0999 
 +30:net30   =   1.1000  30:net36   =   1.1000  30:net38   =   9.2630m
 +30:net41   = 274.4633m 30:net42   = 306.4215m 30:net43   = 101.2689u
 +30:net54   =   3.7782u 30:net55   = 999.5220m 30:net83   =   5.4615u
 +30:net84   = 984.0874m 31:net14   = 112.2253u 31:net24   =  56.5232u
 +32:net010  =  54.7928u 32:net09   =  61.6891u 32:net22   =  73.2347u
 +32:net23   =  72.7180u 32:net24   =   1.1000  32:net25   = 250.5028m
 +33:net14   = 112.2039u 33:net24   =  56.5125u 34:net010  =  54.7769u
 +34:net09   =  61.6831u 34:net22   =  73.2171u 34:net23   =  72.7004u
 +34:net24   =   1.1000  34:net25   = 250.5002m 35:net14   =   1.1000 
 +35:net24   =  98.1573m 36:net010  =   1.1000  36:net09   =   1.1000 
 +36:net22   =  73.0729u 36:net23   =  73.1325u 36:net24   = 250.8196m
 +36:net25   =   1.1000  37:net14   =   1.1000  37:net24   =  97.8660m
 +38:net010  =   1.1000  38:net09   =   1.1000  38:net22   =  72.6391u
 +38:net23   =  73.1559u 38:net24   = 250.5146m 38:net25   =   1.1000 


          ***** job concluded
 ******  
 * first line is treated as comment

 ****** job statistics summary tnom=  25.000 temp=  25.000 ******
  
 ******  Machine Information  ******
 CPU:
 model name	: Intel(R) Xeon(R) Silver 4216 CPU @ 2.10GHz
 cpu MHz	: 3200.000
 CPU(s)		: 64
  
 OS:
 Linux version 4.18.0-553.16.1.el8_10.x86_64 (mockbuild@x86-64-01.build.eng.rdu2.redhat.com) (gcc version 8.5.0 20210514 (Red Hat 8.5.0-22) (GCC)) #1 SMP Thu Aug 1 04:16:12 EDT 2024

 System loadavg : 6.00 6.00 6.00 8/1353 3769993


  ******  PrimeSim HSPICE Threads Information  ******

  Command Line Threads Count :     1
  Available CPU Count        :    64
  Actual Threads Count       :     1


  ****** Statistics of Ignored Elements ******
  Voltage Sources :       1

  ******  Circuit Statistics  ******
  # nodes       =    2023 # elements   =     456
  # resistors   =       1 # capacitors =       0 # inductors   =       0
  # mutual_inds =       0 # vccs       =       0 # vcvs        =       0
  # cccs        =       0 # ccvs       =       0 # volt_srcs   =       2
  # curr_srcs   =       0 # diodes     =       0 # bjts        =       0
  # jfets       =       0 # mosfets    =     444 # U elements  =       0
  # T elements  =       0 # W elements =       0 # B elements  =       0
  # S elements  =       0 # P elements =       0 # va device   =       0
  # vector_srcs =       9 # N elements =       0


  ******  Runtime Statistics (seconds)  ******

  analysis           time    # points   tot. iter  conv.iter
  op point           0.10           1          97
  transient          0.38        5001         751         323 rev=        46
  readin             0.01
  errchk             0.07
  setup              0.16
  output             0.00


           peak memory used        525.47 megabytes
           total cpu time            0.72 seconds
           total elapsed time        0.78 seconds
           job started at     14:50:44 03/25/2025
           job ended   at     14:50:45 03/25/2025

>info:         ***** hspice job concluded
           job total runtime         0.78 seconds


 lic: Release hspice token(s) 
 lic: total license checkout elapse time:        0.05(s)
