Using: /opt/synopsys/hspice/hspice/T-2022.06-3/hspice/linux64/hspice mppl.sp
 ****** PrimeSim HSPICE -- T-2022.06-3 linux64 (Aug 04 2022 7739753) ******
  Copyright (c) 1986 - 2025 by Synopsys, Inc. All Rights Reserved.
  This software and the associated documentation are proprietary
  to Synopsys, Inc. This software may only be used in accordance
  with the terms and conditions of a written license agreement with
  Synopsys, Inc. All other use, reproduction, or distribution of
  this software is strictly prohibited.
  Input File: mppl.sp                                                           
  Command line options: /opt/synopsys/hspice/hspice/T-2022.06-3/hspice/linux64/hspice mppl.sp
  Start time: Mon Apr  7 09:29:07 2025
 lic:  
 lic: FLEXlm: SDK_12.10 
 lic: USER:   cdeclercq            HOSTNAME: vlsicad.ecs.umass.edu 
 lic: HOSTID: 13ac8554             PID:      226791 
 lic: Using FLEXlm license file: 
 lic: 27020@vlsicad.ecs.umass.edu 
 lic: Checkout 1 hspice 
 lic: License/Maintenance for hspice will expire on 09-sep-2025/2023.12 
 lic: 3(in_use)/50(total) FLOATING license(s) on SERVER 27020@vlsicad.ecs.umass.edu 
 lic:   
 scientific notation:
 a=10**-18  f=10**-15  p=10**-12  n=10**-9  u=10**-6
 m=10**-3   k=10**3    x=10**6    g=10**9 
  **warning** (mppl.sp:36) Global net name "gnd" in subckt pin list. The pin will be connected to the local net. Recommend to not use global net names in subckt pin lists.
1****** PrimeSim HSPICE -- T-2022.06-3 linux64 (Aug 04 2022 7739753) ******
 ******  
 * first line is treated as comment

 ****** circuit name directory
 circuit number to circuit name directory
   number circuitname                     definition         multiplier
        0 main circuit
        1 xi23.                           and                1.00 
        2 xi15.                           and                1.00 
        3 xi14.                           and                1.00 
        4 xi13.                           and                1.00 
        5 xi7.                            and                1.00 
        6 xi5.                            and                1.00 
        7 xi4.                            and                1.00 
        8 xi2.                            and                1.00 
        9 xi1.                            and                1.00 
       10 xi0.                            and                1.00 
       11 xi22.                           nand               1.00 
       12 xi21.                           nand               1.00 
       13 xi20.                           nand               1.00 
       14 xi12.                           nand               1.00 
       15 xi6.                            nand               1.00 
       16 xi3.                            nand               1.00 
       17 xi31.                           half_adder         1.00 
       18 xi32.                           half_adder         1.00 
       19 xi30.                           half_adder         1.00 
       20 xi29.                           half_adder         1.00 
       21 xi28.                           full_adder         1.00 
       22 xi27.                           full_adder         1.00 
       23 xi26.                           full_adder         1.00 
       24 xi19.                           full_adder         1.00 
       25 xi18.                           full_adder         1.00 
       26 xi17.                           full_adder         1.00 
       27 xi11.                           full_adder         1.00 
       28 xi10.                           full_adder         1.00 
       29 xi9.                            full_adder         1.00 
       30 xi33.                           dreg8b             1.00 
       31 xi34.                           dreg5b             1.00 
       32 xi37.                           flipflop           1.00 
       33 xi36.                           flipflop           1.00 
       34 xi35.                           flipflop           1.00 
       35 xi31.xi0.                       and                1.00 
       36 xi31.xi1.                       xor                1.00 
       37 xi32.xi0.                       and                1.00 
       38 xi32.xi1.                       xor                1.00 
       39 xi30.xi0.                       and                1.00 
       40 xi30.xi1.                       xor                1.00 
       41 xi29.xi0.                       and                1.00 
       42 xi29.xi1.                       xor                1.00 
       43 xi28.xi10.                      nand               1.00 
       44 xi28.xi11.                      nand               1.00 
       45 xi28.xi9.                       nand               1.00 
       46 xi28.xi13.                      xor                1.00 
       47 xi28.xi12.                      xor                1.00 
       48 xi27.xi10.                      nand               1.00 
       49 xi27.xi11.                      nand               1.00 
       50 xi27.xi9.                       nand               1.00 
       51 xi27.xi13.                      xor                1.00 
       52 xi27.xi12.                      xor                1.00 
       53 xi26.xi10.                      nand               1.00 
       54 xi26.xi11.                      nand               1.00 
       55 xi26.xi9.                       nand               1.00 
       56 xi26.xi13.                      xor                1.00 
       57 xi26.xi12.                      xor                1.00 
       58 xi19.xi10.                      nand               1.00 
       59 xi19.xi11.                      nand               1.00 
       60 xi19.xi9.                       nand               1.00 
       61 xi19.xi13.                      xor                1.00 
       62 xi19.xi12.                      xor                1.00 
       63 xi18.xi10.                      nand               1.00 
       64 xi18.xi11.                      nand               1.00 
       65 xi18.xi9.                       nand               1.00 
       66 xi18.xi13.                      xor                1.00 
       67 xi18.xi12.                      xor                1.00 
       68 xi17.xi10.                      nand               1.00 
       69 xi17.xi11.                      nand               1.00 
       70 xi17.xi9.                       nand               1.00 
       71 xi17.xi13.                      xor                1.00 
       72 xi17.xi12.                      xor                1.00 
       73 xi11.xi10.                      nand               1.00 
       74 xi11.xi11.                      nand               1.00 
       75 xi11.xi9.                       nand               1.00 
       76 xi11.xi13.                      xor                1.00 
       77 xi11.xi12.                      xor                1.00 
       78 xi10.xi10.                      nand               1.00 
       79 xi10.xi11.                      nand               1.00 
       80 xi10.xi9.                       nand               1.00 
       81 xi10.xi13.                      xor                1.00 
       82 xi10.xi12.                      xor                1.00 
       83 xi9.xi10.                       nand               1.00 
       84 xi9.xi11.                       nand               1.00 
       85 xi9.xi9.                        nand               1.00 
       86 xi9.xi13.                       xor                1.00 
       87 xi9.xi12.                       xor                1.00 
       88 xi33.xi0.                       dreg5b             1.00 
       89 xi33.xi4.                       flipflop           1.00 
       90 xi33.xi5.                       flipflop           1.00 
       91 xi33.xi6.                       flipflop           1.00 
       92 xi34.xi9.                       flipflop           1.00 
       93 xi34.xi8.                       flipflop           1.00 
       94 xi34.xi7.                       flipflop           1.00 
       95 xi34.xi6.                       flipflop           1.00 
       96 xi34.xi5.                       flipflop           1.00 
       97 xi37.xi0.                       inv                1.00 
       98 xi36.xi0.                       inv                1.00 
       99 xi35.xi0.                       inv                1.00 
      100 xi31.xi1.xi2.                   inv                1.00 
      101 xi31.xi1.xi3.                   inv                1.00 
      102 xi32.xi1.xi2.                   inv                1.00 
      103 xi32.xi1.xi3.                   inv                1.00 
      104 xi30.xi1.xi2.                   inv                1.00 
      105 xi30.xi1.xi3.                   inv                1.00 
      106 xi29.xi1.xi2.                   inv                1.00 
      107 xi29.xi1.xi3.                   inv                1.00 
      108 xi28.xi13.xi2.                  inv                1.00 
      109 xi28.xi13.xi3.                  inv                1.00 
      110 xi28.xi12.xi2.                  inv                1.00 
      111 xi28.xi12.xi3.                  inv                1.00 
      112 xi27.xi13.xi2.                  inv                1.00 
      113 xi27.xi13.xi3.                  inv                1.00 
      114 xi27.xi12.xi2.                  inv                1.00 
      115 xi27.xi12.xi3.                  inv                1.00 
      116 xi26.xi13.xi2.                  inv                1.00 
      117 xi26.xi13.xi3.                  inv                1.00 
      118 xi26.xi12.xi2.                  inv                1.00 
      119 xi26.xi12.xi3.                  inv                1.00 
      120 xi19.xi13.xi2.                  inv                1.00 
      121 xi19.xi13.xi3.                  inv                1.00 
      122 xi19.xi12.xi2.                  inv                1.00 
      123 xi19.xi12.xi3.                  inv                1.00 
      124 xi18.xi13.xi2.                  inv                1.00 
      125 xi18.xi13.xi3.                  inv                1.00 
      126 xi18.xi12.xi2.                  inv                1.00 
      127 xi18.xi12.xi3.                  inv                1.00 
      128 xi17.xi13.xi2.                  inv                1.00 
      129 xi17.xi13.xi3.                  inv                1.00 
      130 xi17.xi12.xi2.                  inv                1.00 
      131 xi17.xi12.xi3.                  inv                1.00 
      132 xi11.xi13.xi2.                  inv                1.00 
      133 xi11.xi13.xi3.                  inv                1.00 
      134 xi11.xi12.xi2.                  inv                1.00 
      135 xi11.xi12.xi3.                  inv                1.00 
      136 xi10.xi13.xi2.                  inv                1.00 
      137 xi10.xi13.xi3.                  inv                1.00 
      138 xi10.xi12.xi2.                  inv                1.00 
      139 xi10.xi12.xi3.                  inv                1.00 
      140 xi9.xi13.xi2.                   inv                1.00 
      141 xi9.xi13.xi3.                   inv                1.00 
      142 xi9.xi12.xi2.                   inv                1.00 
      143 xi9.xi12.xi3.                   inv                1.00 
      144 xi33.xi0.xi9.                   flipflop           1.00 
      145 xi33.xi0.xi8.                   flipflop           1.00 
      146 xi33.xi0.xi7.                   flipflop           1.00 
      147 xi33.xi0.xi6.                   flipflop           1.00 
      148 xi33.xi0.xi5.                   flipflop           1.00 
      149 xi33.xi4.xi0.                   inv                1.00 
      150 xi33.xi5.xi0.                   inv                1.00 
      151 xi33.xi6.xi0.                   inv                1.00 
      152 xi34.xi9.xi0.                   inv                1.00 
      153 xi34.xi8.xi0.                   inv                1.00 
      154 xi34.xi7.xi0.                   inv                1.00 
      155 xi34.xi6.xi0.                   inv                1.00 
      156 xi34.xi5.xi0.                   inv                1.00 
      157 xi33.xi0.xi9.xi0.               inv                1.00 
      158 xi33.xi0.xi8.xi0.               inv                1.00 
      159 xi33.xi0.xi7.xi0.               inv                1.00 
      160 xi33.xi0.xi6.xi0.               inv                1.00 
      161 xi33.xi0.xi5.xi0.               inv                1.00 


 circuit parameter definitions
  parameter          =  value 

     0:vdd_val                                                 =   1.1000       
     0:tris                                                    =  50.0000       
     0:tper                                                    =   1.0000k      
     0:tfall                                                   =  50.0000       
     0:tpw                                                     = 450.0000       
     0:tdlay                                                   =   0.           




 constants  - tnom         kt           vt           gapsi        ni
            298.15000    4.1163e-21    25.69184m     1.11562    1.2565e+16 
 ******  
 * first line is treated as comment

 ****** mos   model parameters tnom=  25.000 temp=  25.000 ******
 Model file: /opt/cadence/gpdk045/gpdk045_v_6_0/models/hspice/g45n1svt.inc
 Model line:            3
 Model Name: g45n1svt  
 BSIM4 Model (Level 54)
    MOBMOD = 0
    BINUNIT = 1
    PARAMCHK = 1
    CAPMOD = 2
    DIOMOD = 1
    RDSMOD = 0
    TRNQSMOD = 0
    ACNQSMOD = 0
    RBODYMOD = 1
    RGATEMOD = 1
    PERMOD = 1
    GEOMOD = 1
    RGEOMOD = 0
    FNOIMOD = 1
    TNOIMOD = 0
    IGCMOD = 1
    IGBMOD = 1
    STIMOD = 0
    VERSION =      4 
    TOXREF = 1.14e-09 
    TOXE = 1.14e-09 
    TOXP =  1e-09 
    TOXM = 1.14e-09 
    DTOX = 1.4e-10 
    EPSROX =    3.9 
    CDSC =      0 
    CDSCB =      0 
    CDSCD =      0 
    CIT =      0 
    NFACTOR =    2.1 
    XJ = 1.98e-08 
    VSAT = 1.23e+05 
    A0 =      1 
    AGS =      0 
    A1 =      0 
    A2 =      1 
    AT = 3.3e+04 
    KETA =   0.04 
    NSUB =  6e+16 
    NDEP = 3.4e+18 
    NSD =  2e+20 
    NGATE =  3e+20 
    GAMMA1 =      0 
    GAMMA2 =      0 
    VBX =      0 
    VBM =     -3 
    XT = 1.55e-07 
    K1 =    0.4 
    KT1 =  -0.11 
    KT1L =      0 
    KT2 =  0.022 
    K2 =      0 
    K3 =      0 
    K3B =      0 
    LPE0 =      0 
    LPEB =      0 
    DVTP0 =  1e-10 
    DVTP1 =    0.1 
    W0 = 2.5e-06 
    DVT0 =      1 
    DVT1 =      2 
    DVT2 =      0 
    DVT0W =      0 
    DVT1W =      0 
    DVT2W =      0 
    DROUT =    0.5 
    DSUB =    0.1 
    VTH0 = 0.4106 
    EU =   1.67 
    UA =  6e-10 
    UA1 = 4.31e-09 
    UB = 1.2e-18 
    UB1 = 7.61e-18 
    UC =      0 
    UC1 = -5.6e-11 
    U0 =  0.045 
    UTE =   -1.5 
    VOFF =  -0.13 
    VOFFL =      0 
    MINV =   0.05 
    FPROUT =    0.2 
    PDITS =   0.08 
    PDITSD =   0.23 
    PDITSL = 2.3e+06 
    DELTA =   0.01 
    RDSW =    155 
    RDSWMIN =      0 
    RDWMIN =      0 
    RSWMIN =      0 
    RDW =     80 
    RSW =     80 
    PRWG =      0 
    PRWB =      0 
    PRT =      0 
    ETA0 =  0.006 
    ETAB =      0 
    PCLM =   0.02 
    PDIBLC1 =  0.001 
    PDIBLC2 =  0.001 
    PDIBLCB = -0.005 
    PSCBE1 = 8.14e+08 
    PSCBE2 =  1e-07 
    PVAG =  1e-20 
    WR =      1 
    DWG =      0 
    DWB =      0 
    XW =      0 
    XWREF =      0 
    XL = -2e-08 
    XLREF = -2e-08 
    B0 =      0 
    B1 =      0 
    ALPHA0 =  0.074 
    ALPHA1 =  0.005 
    AGIDL = 0.0002 
    BGIDL = 2.1e+09 
    CGIDL = 0.0002 
    PHIN =      0 
    EGIDL =    0.8 
    AIGC =   0.02 
    BIGC = 0.0027 
    CIGC =  0.002 
    AIGSD =   0.02 
    BIGSD = 0.0027 
    CIGSD =  0.002 
    AIGBACC =  0.012 
    BIGBACC = 0.0028 
    CIGBACC =  0.002 
    AIGBINV =  0.014 
    BIGBINV =  0.004 
    CIGBINV =  0.004 
    NIGC =      1 
    NIGBINV =      3 
    NIGBACC =      1 
    NTOX =      1 
    EIGBINV =    1.1 
    PIGCD =      1 
    POXEDGE =      1 
    XRCRG1 =     12 
    TNOIA =    1.5 
    TNOIB =    3.5 
    NTNOI =      1 
    XRCRG2 =      5 
    BETA0 =     30 
    IJTHDFWD =   0.01 
    IJTHSFWD =   0.01 
    IJTHDREV =  0.001 
    IJTHSREV =  0.001 
    XJBVD =      1 
    XJBVS =      1 
    BVD =     10 
    BVS =     10 
    VFB =  -0.55 
    GBMIN =  1e-10 
    RBDB =     15 
    RBPB =      5 
    RBSB =     15 
    RBPS =     15 
    RBPD =     15 
    CGSL = 2.653e-10 
    CGDL = 2.653e-10 
    CKAPPAS =   0.03 
    CKAPPAD =   0.03 
    CF = 1.289e-10 
    CLC =  1e-07 
    CLE =    0.6 
    DWC =  5e-09 
    DLC = 3.75e-09 
    DLCIG = 3.75e-09 
    DWJ =      0 
    VFBCV =     -1 
    ACDE =      1 
    MOIN =     15 
    NOFF =    0.9 
    VOFFCV =   0.02 
    DMCG =      0 
    DMCI =      0 
    DMDG =      0 
    DMCGT =      0 
    XGW =      0 
    XGL =      0 
    RSHG =    0.4 
    NGCON =      1 
    TCJ =  0.001 
    TPB =  0.005 
    TCJSW =  0.001 
    TPBSW =  0.005 
    TCJSWG =  0.001 
    TPBSWG =  0.005 
    SK0 =      0 
    SK1 =      0 
    SK2 =      0 
    SL =  2e-06 
    SW =  2e-06 
    K =      0 
    TNOM =  300.1 
    CGSO = 1.1e-10 
    CGDO = 1.1e-10 
    CGBO = 2.56e-11 
    XPART =      0 
    RSH =      5 
    JSS = 0.0001 
    JSWS =  1e-11 
    JSWGS =  1e-10 
    PBS =      1 
    MJS =    0.5 
    PBSWS =      1 
    MJSWS =   0.33 
    CJS = 0.0005 
    CJSWS =  5e-10 
    NJS =      1 
    PBSWGS =      1 
    MJSWGS =   0.33 
    CJSWGS =  3e-10 
    XTIS =      3 
    JSD = 0.0001 
    JSWD =  1e-11 
    JSWGD =  1e-10 
    PBD =      1 
    MJD =    0.5 
    PBSWD =      1 
    MJSWD =   0.33 
    CJD = 0.0005 
    CJSWD =  5e-10 
    NJD =      1 
    PBSWGD =      1 
    MJSWGD =   0.33 
    CJSWGD =  5e-10 
    XTID =      3 
    LMLT =      1 
    WMLT =      1 
    LINT = 3.75e-09 
    LL =      0 
    LLC =      0 
    LLN =      1 
    LW =      0 
    LWC =      0 
    LWN =      1 
    LWL =      0 
    LWLC =      0 
    LMIN =      0 
    LMAX =      1 
    WINT =  5e-09 
    WL =      0 
    WLC =      0 
    WLN =      1 
    WW =      0 
    WWC =      0 
    WWN =      1 
    WWL =      0 
    WWLC =      0 
    WMIN =      0 
    WMAX =      1 
    NOIA = 6.25e+41 
    NOIB = 3.125e+26 
    NOIC = 8.75e+09 
    EM = 4.1e+07 
    EF =      1 
    AF =      1 
    KF =      0 
    TRS =      0 
    TRD =      0 
 Model file: /opt/cadence/gpdk045/gpdk045_v_6_0/models/hspice/g45p1svt.inc
 Model line:            3
 Model Name: g45p1svt  
 BSIM4 Model (Level 54)
    MOBMOD = 0
    BINUNIT = 1
    PARAMCHK = 1
    CAPMOD = 2
    DIOMOD = 1
    RDSMOD = 0
    TRNQSMOD = 0
    ACNQSMOD = 0
    RBODYMOD = 1
    RGATEMOD = 1
    PERMOD = 1
    GEOMOD = 1
    RGEOMOD = 0
    FNOIMOD = 1
    TNOIMOD = 0
    IGCMOD = 1
    IGBMOD = 1
    STIMOD = 0
    VERSION =      4 
    TOXREF = 1.3e-09 
    TOXE = 1.26e-09 
    TOXP =  1e-09 
    TOXM = 1.26e-09 
    DTOX = 2.6e-10 
    EPSROX =    3.9 
    CDSC =      0 
    CDSCB =      0 
    CDSCD =      0 
    CIT =      0 
    NFACTOR =   2.22 
    XJ = 1.98e-08 
    VSAT = 6.2e+04 
    A0 =      1 
    AGS =  1e-20 
    A1 =      0 
    A2 =      1 
    AT = 3.3e+04 
    KETA = -0.047 
    NSUB =  6e+16 
    NDEP = 2.44e+18 
    NSD =  2e+20 
    NGATE =  2e+20 
    GAMMA1 =      0 
    GAMMA2 =      0 
    VBX =      0 
    VBM =     -3 
    XT = 1.55e-07 
    K1 =    0.4 
    KT1 =  -0.11 
    KT1L =      0 
    KT2 =  0.022 
    K2 =  -0.01 
    K3 =      0 
    K3B =      0 
    LPE0 =      0 
    LPEB =      0 
    DVTP0 =  1e-11 
    DVTP1 =   0.05 
    W0 = 2.5e-06 
    DVT0 =      1 
    DVT1 =      2 
    DVT2 = -0.032 
    DVT0W =      0 
    DVT1W =      0 
    DVT2W =      0 
    DROUT =   0.56 
    DSUB =    0.1 
    VTH0 = -0.3842 
    EU =      1 
    UA =  2e-09 
    UA1 = 4.31e-09 
    UB =  5e-19 
    UB1 = 7.61e-18 
    UC =      0 
    UC1 = -5.6e-11 
    U0 =   0.02 
    UTE =   -1.5 
    VOFF = -0.126 
    VOFFL =      0 
    MINV =   0.05 
    FPROUT =    0.2 
    PDITS =   0.08 
    PDITSD =   0.23 
    PDITSL = 2.3e+06 
    DELTA =   0.01 
    RDSW =    155 
    RDSWMIN =      0 
    RDWMIN =      0 
    RSWMIN =      0 
    RDW =     75 
    RSW =     75 
    PRWG =      0 
    PRWB =      0 
    PRT =      0 
    ETA0 = 0.0055 
    ETAB =      0 
    PCLM =   0.12 
    PDIBLC1 =  0.001 
    PDIBLC2 =  0.001 
    PDIBLCB = 3.4e-08 
    PSCBE1 = 8.14e+08 
    PSCBE2 = 9.58e-07 
    PVAG =  1e-20 
    WR =      1 
    DWG =      0 
    DWB =      0 
    XW =      0 
    XWREF =      0 
    XL = -2e-08 
    XLREF = -2e-08 
    B0 =      0 
    B1 =      0 
    ALPHA0 =  0.074 
    ALPHA1 =  0.005 
    AGIDL = 0.0002 
    BGIDL = 2.1e+09 
    CGIDL = 0.0002 
    PHIN =      0 
    EGIDL =    0.8 
    AIGC = 0.01069 
    BIGC = 0.001261 
    CIGC = 0.0008 
    AIGSD = 0.01069 
    BIGSD = 0.001261 
    CIGSD = 0.0008 
    AIGBACC =  0.012 
    BIGBACC = 0.0028 
    CIGBACC =  0.002 
    AIGBINV =  0.014 
    BIGBINV =  0.004 
    CIGBINV =  0.004 
    NIGC =      1 
    NIGBINV =      3 
    NIGBACC =      1 
    NTOX =      1 
    EIGBINV =    1.1 
    PIGCD =      1 
    POXEDGE =      1 
    XRCRG1 =     12 
    TNOIA =    1.5 
    TNOIB =    3.5 
    NTNOI =      1 
    XRCRG2 =      5 
    BETA0 =     30 
    IJTHDFWD =   0.01 
    IJTHSFWD =   0.01 
    IJTHDREV =  0.001 
    IJTHSREV =  0.001 
    XJBVD =      1 
    XJBVS =      1 
    BVD =     10 
    BVS =     10 
    VFB =   0.55 
    GBMIN =  1e-10 
    RBDB =     15 
    RBPB =      5 
    RBSB =     15 
    RBPS =     15 
    RBPD =     15 
    CGSL = 2.653e-10 
    CGDL = 2.653e-10 
    CKAPPAS =   0.03 
    CKAPPAD =   0.03 
    CF = 1.267e-10 
    CLC =  1e-07 
    CLE =    0.6 
    DWC =  5e-09 
    DLC = 3.75e-09 
    DLCIG = 3.75e-09 
    DWJ =      0 
    VFBCV =     -1 
    ACDE =      1 
    MOIN =     15 
    NOFF =    0.9 
    VOFFCV =   0.02 
    DMCG =      0 
    DMCI =      0 
    DMDG =      0 
    DMCGT =      0 
    XGW =      0 
    XGL =      0 
    RSHG =    0.4 
    NGCON =      1 
    TCJ =  0.001 
    TPB =  0.005 
    TCJSW =  0.001 
    TPBSW =  0.005 
    TCJSWG =  0.001 
    TPBSWG =  0.005 
    SK0 =      0 
    SK1 =      0 
    SK2 =      0 
    SL =  2e-06 
    SW =  2e-06 
    K =      0 
    TNOM =  300.1 
    CGSO = 1.1e-10 
    CGDO = 1.1e-10 
    CGBO = 2.56e-11 
    XPART =      0 
    RSH =      5 
    JSS = 0.0001 
    JSWS =  1e-11 
    JSWGS =  1e-10 
    PBS =      1 
    MJS =    0.5 
    PBSWS =      1 
    MJSWS =   0.33 
    CJS = 0.0005 
    CJSWS =  5e-10 
    NJS =      1 
    PBSWGS =      1 
    MJSWGS =   0.33 
    CJSWGS =  3e-10 
    XTIS =      3 
    JSD = 0.0001 
    JSWD =  1e-11 
    JSWGD =  1e-10 
    PBD =      1 
    MJD =    0.5 
    PBSWD =      1 
    MJSWD =   0.33 
    CJD = 0.0005 
    CJSWD =  5e-10 
    NJD =      1 
    PBSWGD =      1 
    MJSWGD =   0.33 
    CJSWGD =  5e-10 
    XTID =      3 
    LMLT =      1 
    WMLT =      1 
    LINT = 3.75e-09 
    LL =      0 
    LLC =      0 
    LLN =      1 
    LW =      0 
    LWC =      0 
    LWN =      1 
    LWL =      0 
    LWLC =      0 
    LMIN =      0 
    LMAX =      1 
    WINT =  5e-09 
    WL =      0 
    WLC =      0 
    WLN =      1 
    WW =      0 
    WWC =      0 
    WWN =      1 
    WWL =      0 
    WWLC =      0 
    WMIN =      0 
    WMAX =      1 
    NOIA = 6.188e+40 
    NOIB = 1.5e+25 
    NOIC = 8.75e+09 
    EM = 4.1e+07 
    EF =      1 
    AF =      1 
    KF =      0 
    TRS =      0 
    TRD =      0 
  **warning** (mppl.sp:30) Both nodes of element vgnd are connected together; Line ignored.
  **info** (mppl.sp:23) DC voltage reset to initial transient source value in source 0:vpulse. new dc=0.0000D+00
  **warning** (g45n1svt:xi23.mnm2 (mppl.sp:37)) Warning:  Acde = 0.276941 may be too small in BSIM4 model with w=1.2e-07 l=4.5e-08.
 ******  
 * first line is treated as comment

 ****** circuit element summary tnom=  25.000 temp=  25.000 ******


 **** independent sources

     name         node1        node2      dc volt    ac mag    ac phase    type
  vpulse  phi               0                    0.         0.         0.      pulse
             initial value     0.     
             pulsed value.     1.1000 
             delay time...     0.     
             risetime.....    50.0000p
             falltime.....    50.0000p
             width........   450.0000p
             period.......     1.0000n

  vsupply  vdd               0                    1.1000     0.         0.      dc   


 **** mosfets


 **** BSIM4 Model (Level 54)
  
  
                                                                          
 element name        1:mnm2        1:mnm3        1:mnm4        1:mpm0     
 drain               0:net079      1:net14       1:net24       1:net14    
 gate                1:net14       0:net063      0:net0114     0:net063   
 source              0:0           1:net24       0:0           0:vdd      
 bulk                0:0           0:0           0:0           0:vdd      
 model               0:g45n1svt    0:g45n1svt    0:g45n1svt    0:g45p1svt 
 w eff             110.0000n     230.0000n     230.0000n     230.0000n    
 l eff              17.5000n      17.5000n      17.5000n      17.5000n    
 rd eff              0.            0.            0.            0.         
 rs eff              0.            0.            0.            0.         
 cdsat              12.7102a      23.4075a      23.4075a      23.4075a    
 cssat              12.7102a      23.4075a      23.4075a      23.4075a    
 capbd             267.8632a     396.0064a     396.0064a     396.0064a    
 capbs             243.9112a     348.1024a     348.1024a     348.1024a    
 temp               25.0000       25.0000       25.0000       25.0000     
 aic                                                                      
 nf                  1.0000        1.0000        1.0000        1.0000     
 min                 0.            0.            0.            0.         
 rbdb               15.0000       15.0000       15.0000       15.0000     
 rbsb               15.0000       15.0000       15.0000       15.0000     
 rbpb                5.0000        5.0000        5.0000        5.0000     
 rbps               15.0000       15.0000       15.0000       15.0000     
 rbpd               15.0000       15.0000       15.0000       15.0000     
 trnqsmod            0.            0.            0.            0.         
 acnqsmod            0.            0.            0.            0.         
 rbodymod            1.0000        1.0000        1.0000        1.0000     
 rgatemod            1.0000        1.0000        1.0000        1.0000     
 geomod              1.0000        1.0000        1.0000        1.0000     
 rgeomod             0.            0.            0.            0.         
 delvto              0.            0.            0.            0.         
 mulu0               1.0000        1.0000        1.0000        1.0000     
 delk1               0.            0.            0.            0.         
 delnfct             0.            0.            0.            0.         
 deltox              0.            0.            0.            0.         
 sa                  0.            0.            0.            0.         
 sb                  0.            0.            0.            0.         
 sd                  0.            0.            0.            0.         
 saeff               0.            0.            0.            0.         
 sbeff               0.            0.            0.            0.         
 m                   1.0000        1.0000        1.0000        1.0000     
 w drawn           120.0000n     240.0000n     240.0000n     240.0000n    
 l drawn            45.0000n      45.0000n      45.0000n      45.0000n    
  
  
                                                                          
 element name        1:mpm1        1:mpm2        2:mnm2        2:mnm3     
 drain               1:net14       0:net079      0:net051      2:net14    
 gate                0:net0114     1:net14       2:net14       0:b2       
 source              0:vdd         0:vdd         0:0           2:net24    
 bulk                0:vdd         0:vdd         0:0           0:0        
 model               0:g45p1svt    0:g45p1svt    0:g45n1svt    0:g45n1svt 
 w eff             230.0000n     230.0000n     110.0000n     230.0000n    
 l eff              17.5000n      17.5000n      17.5000n      17.5000n    
 rd eff              0.            0.            0.            0.         
 rs eff              0.            0.            0.            0.         
 cdsat              23.4075a      23.4075a      12.7102a      23.4075a    
 cssat              23.4075a      23.4075a      12.7102a      23.4075a    
 capbd             396.0064a     396.0064a     267.8632a     396.0064a    
 capbs             348.1024a     348.1024a     243.9112a     348.1024a    
 temp               25.0000       25.0000       25.0000       25.0000     
 aic                                                                      
 nf                  1.0000        1.0000        1.0000        1.0000     
 min                 0.            0.            0.            0.         
 rbdb               15.0000       15.0000       15.0000       15.0000     
 rbsb               15.0000       15.0000       15.0000       15.0000     
 rbpb                5.0000        5.0000        5.0000        5.0000     
 rbps               15.0000       15.0000       15.0000       15.0000     
 rbpd               15.0000       15.0000       15.0000       15.0000     
 trnqsmod            0.            0.            0.            0.         
 acnqsmod            0.            0.            0.            0.         
 rbodymod            1.0000        1.0000        1.0000        1.0000     
 rgatemod            1.0000        1.0000        1.0000        1.0000     
 geomod              1.0000        1.0000        1.0000        1.0000     
 rgeomod             0.            0.            0.            0.         
 delvto              0.            0.            0.            0.         
 mulu0               1.0000        1.0000        1.0000        1.0000     
 delk1               0.            0.            0.            0.         
 delnfct             0.            0.            0.            0.         
 deltox              0.            0.            0.            0.         
 sa                  0.            0.            0.            0.         
 sb                  0.            0.            0.            0.         
 sd                  0.            0.            0.            0.         
 saeff               0.            0.            0.            0.         
 sbeff               0.            0.            0.            0.         
 m                   1.0000        1.0000        1.0000        1.0000     
 w drawn           240.0000n     240.0000n     120.0000n     240.0000n    
 l drawn            45.0000n      45.0000n      45.0000n      45.0000n    
  
  
                                                                          
 element name        2:mnm4        2:mpm0        2:mpm1        2:mpm2     
 drain               2:net24       2:net14       2:net14       0:net051   
 gate                0:a0          0:b2          0:a0          2:net14    
 source              0:0           0:vdd         0:vdd         0:vdd      
 bulk                0:0           0:vdd         0:vdd         0:vdd      
 model               0:g45n1svt    0:g45p1svt    0:g45p1svt    0:g45p1svt 
 w eff             230.0000n     230.0000n     230.0000n     230.0000n    
 l eff              17.5000n      17.5000n      17.5000n      17.5000n    
 rd eff              0.            0.            0.            0.         
 rs eff              0.            0.            0.            0.         
 cdsat              23.4075a      23.4075a      23.4075a      23.4075a    
 cssat              23.4075a      23.4075a      23.4075a      23.4075a    
 capbd             396.0064a     396.0064a     396.0064a     396.0064a    
 capbs             348.1024a     348.1024a     348.1024a     348.1024a    
 temp               25.0000       25.0000       25.0000       25.0000     
 aic                                                                      
 nf                  1.0000        1.0000        1.0000        1.0000     
 min                 0.            0.            0.            0.         
 rbdb               15.0000       15.0000       15.0000       15.0000     
 rbsb               15.0000       15.0000       15.0000       15.0000     
 rbpb                5.0000        5.0000        5.0000        5.0000     
 rbps               15.0000       15.0000       15.0000       15.0000     
 rbpd               15.0000       15.0000       15.0000       15.0000     
 trnqsmod            0.            0.            0.            0.         
 acnqsmod            0.            0.            0.            0.         
 rbodymod            1.0000        1.0000        1.0000        1.0000     
 rgatemod            1.0000        1.0000        1.0000        1.0000     
 geomod              1.0000        1.0000        1.0000        1.0000     
 rgeomod             0.            0.            0.            0.         
 delvto              0.            0.            0.            0.         
 mulu0               1.0000        1.0000        1.0000        1.0000     
 delk1               0.            0.            0.            0.         
 delnfct             0.            0.            0.            0.         
 deltox              0.            0.            0.            0.         
 sa                  0.            0.            0.            0.         
 sb                  0.            0.            0.            0.         
 sd                  0.            0.            0.            0.         
 saeff               0.            0.            0.            0.         
 sbeff               0.            0.            0.            0.         
 m                   1.0000        1.0000        1.0000        1.0000     
 w drawn           240.0000n     240.0000n     240.0000n     240.0000n    
 l drawn            45.0000n      45.0000n      45.0000n      45.0000n    
  
  
                                                                          
 element name        3:mnm2        3:mnm3        3:mnm4        3:mpm0     
 drain               0:net050      3:net14       3:net24       3:net14    
 gate                3:net14       0:b2          0:a1          0:b2       
 source              0:0           3:net24       0:0           0:vdd      
 bulk                0:0           0:0           0:0           0:vdd      
 model               0:g45n1svt    0:g45n1svt    0:g45n1svt    0:g45p1svt 
 w eff             110.0000n     230.0000n     230.0000n     230.0000n    
 l eff              17.5000n      17.5000n      17.5000n      17.5000n    
 rd eff              0.            0.            0.            0.         
 rs eff              0.            0.            0.            0.         
 cdsat              12.7102a      23.4075a      23.4075a      23.4075a    
 cssat              12.7102a      23.4075a      23.4075a      23.4075a    
 capbd             267.8632a     396.0064a     396.0064a     396.0064a    
 capbs             243.9112a     348.1024a     348.1024a     348.1024a    
 temp               25.0000       25.0000       25.0000       25.0000     
 aic                                                                      
 nf                  1.0000        1.0000        1.0000        1.0000     
 min                 0.            0.            0.            0.         
 rbdb               15.0000       15.0000       15.0000       15.0000     
 rbsb               15.0000       15.0000       15.0000       15.0000     
 rbpb                5.0000        5.0000        5.0000        5.0000     
 rbps               15.0000       15.0000       15.0000       15.0000     
 rbpd               15.0000       15.0000       15.0000       15.0000     
 trnqsmod            0.            0.            0.            0.         
 acnqsmod            0.            0.            0.            0.         
 rbodymod            1.0000        1.0000        1.0000        1.0000     
 rgatemod            1.0000        1.0000        1.0000        1.0000     
 geomod              1.0000        1.0000        1.0000        1.0000     
 rgeomod             0.            0.            0.            0.         
 delvto              0.            0.            0.            0.         
 mulu0               1.0000        1.0000        1.0000        1.0000     
 delk1               0.            0.            0.            0.         
 delnfct             0.            0.            0.            0.         
 deltox              0.            0.            0.            0.         
 sa                  0.            0.            0.            0.         
 sb                  0.            0.            0.            0.         
 sd                  0.            0.            0.            0.         
 saeff               0.            0.            0.            0.         
 sbeff               0.            0.            0.            0.         
 m                   1.0000        1.0000        1.0000        1.0000     
 w drawn           120.0000n     240.0000n     240.0000n     240.0000n    
 l drawn            45.0000n      45.0000n      45.0000n      45.0000n    
  
  
                                                                          
 element name        3:mpm1        3:mpm2        4:mnm2        4:mnm3     
 drain               3:net14       0:net050      0:net049      4:net14    
 gate                0:a1          3:net14       4:net14       0:b2       
 source              0:vdd         0:vdd         0:0           4:net24    
 bulk                0:vdd         0:vdd         0:0           0:0        
 model               0:g45p1svt    0:g45p1svt    0:g45n1svt    0:g45n1svt 
 w eff             230.0000n     230.0000n     110.0000n     230.0000n    
 l eff              17.5000n      17.5000n      17.5000n      17.5000n    
 rd eff              0.            0.            0.            0.         
 rs eff              0.            0.            0.            0.         
 cdsat              23.4075a      23.4075a      12.7102a      23.4075a    
 cssat              23.4075a      23.4075a      12.7102a      23.4075a    
 capbd             396.0064a     396.0064a     267.8632a     396.0064a    
 capbs             348.1024a     348.1024a     243.9112a     348.1024a    
 temp               25.0000       25.0000       25.0000       25.0000     
 aic                                                                      
 nf                  1.0000        1.0000        1.0000        1.0000     
 min                 0.            0.            0.            0.         
 rbdb               15.0000       15.0000       15.0000       15.0000     
 rbsb               15.0000       15.0000       15.0000       15.0000     
 rbpb                5.0000        5.0000        5.0000        5.0000     
 rbps               15.0000       15.0000       15.0000       15.0000     
 rbpd               15.0000       15.0000       15.0000       15.0000     
 trnqsmod            0.            0.            0.            0.         
 acnqsmod            0.            0.            0.            0.         
 rbodymod            1.0000        1.0000        1.0000        1.0000     
 rgatemod            1.0000        1.0000        1.0000        1.0000     
 geomod              1.0000        1.0000        1.0000        1.0000     
 rgeomod             0.            0.            0.            0.         
 delvto              0.            0.            0.            0.         
 mulu0               1.0000        1.0000        1.0000        1.0000     
 delk1               0.            0.            0.            0.         
 delnfct             0.            0.            0.            0.         
 deltox              0.            0.            0.            0.         
 sa                  0.            0.            0.            0.         
 sb                  0.            0.            0.            0.         
 sd                  0.            0.            0.            0.         
 saeff               0.            0.            0.            0.         
 sbeff               0.            0.            0.            0.         
 m                   1.0000        1.0000        1.0000        1.0000     
 w drawn           240.0000n     240.0000n     120.0000n     240.0000n    
 l drawn            45.0000n      45.0000n      45.0000n      45.0000n    
  
  
                                                                          
 element name        4:mnm4        4:mpm0        4:mpm1        4:mpm2     
 drain               4:net24       4:net14       4:net14       0:net049   
 gate                0:a2          0:b2          0:a2          4:net14    
 source              0:0           0:vdd         0:vdd         0:vdd      
 bulk                0:0           0:vdd         0:vdd         0:vdd      
 model               0:g45n1svt    0:g45p1svt    0:g45p1svt    0:g45p1svt 
 w eff             230.0000n     230.0000n     230.0000n     230.0000n    
 l eff              17.5000n      17.5000n      17.5000n      17.5000n    
 rd eff              0.            0.            0.            0.         
 rs eff              0.            0.            0.            0.         
 cdsat              23.4075a      23.4075a      23.4075a      23.4075a    
 cssat              23.4075a      23.4075a      23.4075a      23.4075a    
 capbd             396.0064a     396.0064a     396.0064a     396.0064a    
 capbs             348.1024a     348.1024a     348.1024a     348.1024a    
 temp               25.0000       25.0000       25.0000       25.0000     
 aic                                                                      
 nf                  1.0000        1.0000        1.0000        1.0000     
 min                 0.            0.            0.            0.         
 rbdb               15.0000       15.0000       15.0000       15.0000     
 rbsb               15.0000       15.0000       15.0000       15.0000     
 rbpb                5.0000        5.0000        5.0000        5.0000     
 rbps               15.0000       15.0000       15.0000       15.0000     
 rbpd               15.0000       15.0000       15.0000       15.0000     
 trnqsmod            0.            0.            0.            0.         
 acnqsmod            0.            0.            0.            0.         
 rbodymod            1.0000        1.0000        1.0000        1.0000     
 rgatemod            1.0000        1.0000        1.0000        1.0000     
 geomod              1.0000        1.0000        1.0000        1.0000     
 rgeomod             0.            0.            0.            0.         
 delvto              0.            0.            0.            0.         
 mulu0               1.0000        1.0000        1.0000        1.0000     
 delk1               0.            0.            0.            0.         
 delnfct             0.            0.            0.            0.         
 deltox              0.            0.            0.            0.         
 sa                  0.            0.            0.            0.         
 sb                  0.            0.            0.            0.         
 sd                  0.            0.            0.            0.         
 saeff               0.            0.            0.            0.         
 sbeff               0.            0.            0.            0.         
 m                   1.0000        1.0000        1.0000        1.0000     
 w drawn           240.0000n     240.0000n     240.0000n     240.0000n    
 l drawn            45.0000n      45.0000n      45.0000n      45.0000n    
  
  
                                                                          
 element name        5:mnm2        5:mnm3        5:mnm4        5:mpm0     
 drain               0:net48       5:net14       5:net24       5:net14    
 gate                5:net14       0:b1          0:a0          0:b1       
 source              0:0           5:net24       0:0           0:vdd      
 bulk                0:0           0:0           0:0           0:vdd      
 model               0:g45n1svt    0:g45n1svt    0:g45n1svt    0:g45p1svt 
 w eff             110.0000n     230.0000n     230.0000n     230.0000n    
 l eff              17.5000n      17.5000n      17.5000n      17.5000n    
 rd eff              0.            0.            0.            0.         
 rs eff              0.            0.            0.            0.         
 cdsat              12.7102a      23.4075a      23.4075a      23.4075a    
 cssat              12.7102a      23.4075a      23.4075a      23.4075a    
 capbd             267.8632a     396.0064a     396.0064a     396.0064a    
 capbs             243.9112a     348.1024a     348.1024a     348.1024a    
 temp               25.0000       25.0000       25.0000       25.0000     
 aic                                                                      
 nf                  1.0000        1.0000        1.0000        1.0000     
 min                 0.            0.            0.            0.         
 rbdb               15.0000       15.0000       15.0000       15.0000     
 rbsb               15.0000       15.0000       15.0000       15.0000     
 rbpb                5.0000        5.0000        5.0000        5.0000     
 rbps               15.0000       15.0000       15.0000       15.0000     
 rbpd               15.0000       15.0000       15.0000       15.0000     
 trnqsmod            0.            0.            0.            0.         
 acnqsmod            0.            0.            0.            0.         
 rbodymod            1.0000        1.0000        1.0000        1.0000     
 rgatemod            1.0000        1.0000        1.0000        1.0000     
 geomod              1.0000        1.0000        1.0000        1.0000     
 rgeomod             0.            0.            0.            0.         
 delvto              0.            0.            0.            0.         
 mulu0               1.0000        1.0000        1.0000        1.0000     
 delk1               0.            0.            0.            0.         
 delnfct             0.            0.            0.            0.         
 deltox              0.            0.            0.            0.         
 sa                  0.            0.            0.            0.         
 sb                  0.            0.            0.            0.         
 sd                  0.            0.            0.            0.         
 saeff               0.            0.            0.            0.         
 sbeff               0.            0.            0.            0.         
 m                   1.0000        1.0000        1.0000        1.0000     
 w drawn           120.0000n     240.0000n     240.0000n     240.0000n    
 l drawn            45.0000n      45.0000n      45.0000n      45.0000n    
  
  
                                                                          
 element name        5:mpm1        5:mpm2        6:mnm2        6:mnm3     
 drain               5:net14       0:net48       0:net24       6:net14    
 gate                0:a0          5:net14       6:net14       0:b1       
 source              0:vdd         0:vdd         0:0           6:net24    
 bulk                0:vdd         0:vdd         0:0           0:0        
 model               0:g45p1svt    0:g45p1svt    0:g45n1svt    0:g45n1svt 
 w eff             230.0000n     230.0000n     110.0000n     230.0000n    
 l eff              17.5000n      17.5000n      17.5000n      17.5000n    
 rd eff              0.            0.            0.            0.         
 rs eff              0.            0.            0.            0.         
 cdsat              23.4075a      23.4075a      12.7102a      23.4075a    
 cssat              23.4075a      23.4075a      12.7102a      23.4075a    
 capbd             396.0064a     396.0064a     267.8632a     396.0064a    
 capbs             348.1024a     348.1024a     243.9112a     348.1024a    
 temp               25.0000       25.0000       25.0000       25.0000     
 aic                                                                      
 nf                  1.0000        1.0000        1.0000        1.0000     
 min                 0.            0.            0.            0.         
 rbdb               15.0000       15.0000       15.0000       15.0000     
 rbsb               15.0000       15.0000       15.0000       15.0000     
 rbpb                5.0000        5.0000        5.0000        5.0000     
 rbps               15.0000       15.0000       15.0000       15.0000     
 rbpd               15.0000       15.0000       15.0000       15.0000     
 trnqsmod            0.            0.            0.            0.         
 acnqsmod            0.            0.            0.            0.         
 rbodymod            1.0000        1.0000        1.0000        1.0000     
 rgatemod            1.0000        1.0000        1.0000        1.0000     
 geomod              1.0000        1.0000        1.0000        1.0000     
 rgeomod             0.            0.            0.            0.         
 delvto              0.            0.            0.            0.         
 mulu0               1.0000        1.0000        1.0000        1.0000     
 delk1               0.            0.            0.            0.         
 delnfct             0.            0.            0.            0.         
 deltox              0.            0.            0.            0.         
 sa                  0.            0.            0.            0.         
 sb                  0.            0.            0.            0.         
 sd                  0.            0.            0.            0.         
 saeff               0.            0.            0.            0.         
 sbeff               0.            0.            0.            0.         
 m                   1.0000        1.0000        1.0000        1.0000     
 w drawn           240.0000n     240.0000n     120.0000n     240.0000n    
 l drawn            45.0000n      45.0000n      45.0000n      45.0000n    
  
  
                                                                          
 element name        6:mnm4        6:mpm0        6:mpm1        6:mpm2     
 drain               6:net24       6:net14       6:net14       0:net24    
 gate                0:a2          0:b1          0:a2          6:net14    
 source              0:0           0:vdd         0:vdd         0:vdd      
 bulk                0:0           0:vdd         0:vdd         0:vdd      
 model               0:g45n1svt    0:g45p1svt    0:g45p1svt    0:g45p1svt 
 w eff             230.0000n     230.0000n     230.0000n     230.0000n    
 l eff              17.5000n      17.5000n      17.5000n      17.5000n    
 rd eff              0.            0.            0.            0.         
 rs eff              0.            0.            0.            0.         
 cdsat              23.4075a      23.4075a      23.4075a      23.4075a    
 cssat              23.4075a      23.4075a      23.4075a      23.4075a    
 capbd             396.0064a     396.0064a     396.0064a     396.0064a    
 capbs             348.1024a     348.1024a     348.1024a     348.1024a    
 temp               25.0000       25.0000       25.0000       25.0000     
 aic                                                                      
 nf                  1.0000        1.0000        1.0000        1.0000     
 min                 0.            0.            0.            0.         
 rbdb               15.0000       15.0000       15.0000       15.0000     
 rbsb               15.0000       15.0000       15.0000       15.0000     
 rbpb                5.0000        5.0000        5.0000        5.0000     
 rbps               15.0000       15.0000       15.0000       15.0000     
 rbpd               15.0000       15.0000       15.0000       15.0000     
 trnqsmod            0.            0.            0.            0.         
 acnqsmod            0.            0.            0.            0.         
 rbodymod            1.0000        1.0000        1.0000        1.0000     
 rgatemod            1.0000        1.0000        1.0000        1.0000     
 geomod              1.0000        1.0000        1.0000        1.0000     
 rgeomod             0.            0.            0.            0.         
 delvto              0.            0.            0.            0.         
 mulu0               1.0000        1.0000        1.0000        1.0000     
 delk1               0.            0.            0.            0.         
 delnfct             0.            0.            0.            0.         
 deltox              0.            0.            0.            0.         
 sa                  0.            0.            0.            0.         
 sb                  0.            0.            0.            0.         
 sd                  0.            0.            0.            0.         
 saeff               0.            0.            0.            0.         
 sbeff               0.            0.            0.            0.         
 m                   1.0000        1.0000        1.0000        1.0000     
 w drawn           240.0000n     240.0000n     240.0000n     240.0000n    
 l drawn            45.0000n      45.0000n      45.0000n      45.0000n    
  
  
                                                                          
 element name        7:mnm2        7:mnm3        7:mnm4        7:mpm0     
 drain               0:net62       7:net14       7:net24       7:net14    
 gate                7:net14       0:b1          0:a1          0:b1       
 source              0:0           7:net24       0:0           0:vdd      
 bulk                0:0           0:0           0:0           0:vdd      
 model               0:g45n1svt    0:g45n1svt    0:g45n1svt    0:g45p1svt 
 w eff             110.0000n     230.0000n     230.0000n     230.0000n    
 l eff              17.5000n      17.5000n      17.5000n      17.5000n    
 rd eff              0.            0.            0.            0.         
 rs eff              0.            0.            0.            0.         
 cdsat              12.7102a      23.4075a      23.4075a      23.4075a    
 cssat              12.7102a      23.4075a      23.4075a      23.4075a    
 capbd             267.8632a     396.0064a     396.0064a     396.0064a    
 capbs             243.9112a     348.1024a     348.1024a     348.1024a    
 temp               25.0000       25.0000       25.0000       25.0000     
 aic                                                                      
 nf                  1.0000        1.0000        1.0000        1.0000     
 min                 0.            0.            0.            0.         
 rbdb               15.0000       15.0000       15.0000       15.0000     
 rbsb               15.0000       15.0000       15.0000       15.0000     
 rbpb                5.0000        5.0000        5.0000        5.0000     
 rbps               15.0000       15.0000       15.0000       15.0000     
 rbpd               15.0000       15.0000       15.0000       15.0000     
 trnqsmod            0.            0.            0.            0.         
 acnqsmod            0.            0.            0.            0.         
 rbodymod            1.0000        1.0000        1.0000        1.0000     
 rgatemod            1.0000        1.0000        1.0000        1.0000     
 geomod              1.0000        1.0000        1.0000        1.0000     
 rgeomod             0.            0.            0.            0.         
 delvto              0.            0.            0.            0.         
 mulu0               1.0000        1.0000        1.0000        1.0000     
 delk1               0.            0.            0.            0.         
 delnfct             0.            0.            0.            0.         
 deltox              0.            0.            0.            0.         
 sa                  0.            0.            0.            0.         
 sb                  0.            0.            0.            0.         
 sd                  0.            0.            0.            0.         
 saeff               0.            0.            0.            0.         
 sbeff               0.            0.            0.            0.         
 m                   1.0000        1.0000        1.0000        1.0000     
 w drawn           120.0000n     240.0000n     240.0000n     240.0000n    
 l drawn            45.0000n      45.0000n      45.0000n      45.0000n    
  
  
                                                                          
 element name        7:mpm1        7:mpm2        8:mnm2        8:mnm3     
 drain               7:net14       0:net62       0:net30       8:net14    
 gate                0:a1          7:net14       8:net14       0:b0       
 source              0:vdd         0:vdd         0:0           8:net24    
 bulk                0:vdd         0:vdd         0:0           0:0        
 model               0:g45p1svt    0:g45p1svt    0:g45n1svt    0:g45n1svt 
 w eff             230.0000n     230.0000n     110.0000n     230.0000n    
 l eff              17.5000n      17.5000n      17.5000n      17.5000n    
 rd eff              0.            0.            0.            0.         
 rs eff              0.            0.            0.            0.         
 cdsat              23.4075a      23.4075a      12.7102a      23.4075a    
 cssat              23.4075a      23.4075a      12.7102a      23.4075a    
 capbd             396.0064a     396.0064a     267.8632a     396.0064a    
 capbs             348.1024a     348.1024a     243.9112a     348.1024a    
 temp               25.0000       25.0000       25.0000       25.0000     
 aic                                                                      
 nf                  1.0000        1.0000        1.0000        1.0000     
 min                 0.            0.            0.            0.         
 rbdb               15.0000       15.0000       15.0000       15.0000     
 rbsb               15.0000       15.0000       15.0000       15.0000     
 rbpb                5.0000        5.0000        5.0000        5.0000     
 rbps               15.0000       15.0000       15.0000       15.0000     
 rbpd               15.0000       15.0000       15.0000       15.0000     
 trnqsmod            0.            0.            0.            0.         
 acnqsmod            0.            0.            0.            0.         
 rbodymod            1.0000        1.0000        1.0000        1.0000     
 rgatemod            1.0000        1.0000        1.0000        1.0000     
 geomod              1.0000        1.0000        1.0000        1.0000     
 rgeomod             0.            0.            0.            0.         
 delvto              0.            0.            0.            0.         
 mulu0               1.0000        1.0000        1.0000        1.0000     
 delk1               0.            0.            0.            0.         
 delnfct             0.            0.            0.            0.         
 deltox              0.            0.            0.            0.         
 sa                  0.            0.            0.            0.         
 sb                  0.            0.            0.            0.         
 sd                  0.            0.            0.            0.         
 saeff               0.            0.            0.            0.         
 sbeff               0.            0.            0.            0.         
 m                   1.0000        1.0000        1.0000        1.0000     
 w drawn           240.0000n     240.0000n     120.0000n     240.0000n    
 l drawn            45.0000n      45.0000n      45.0000n      45.0000n    
  
  
                                                                          
 element name        8:mnm4        8:mpm0        8:mpm1        8:mpm2     
 drain               8:net24       8:net14       8:net14       0:net30    
 gate                0:a2          0:b0          0:a2          8:net14    
 source              0:0           0:vdd         0:vdd         0:vdd      
 bulk                0:0           0:vdd         0:vdd         0:vdd      
 model               0:g45n1svt    0:g45p1svt    0:g45p1svt    0:g45p1svt 
 w eff             230.0000n     230.0000n     230.0000n     230.0000n    
 l eff              17.5000n      17.5000n      17.5000n      17.5000n    
 rd eff              0.            0.            0.            0.         
 rs eff              0.            0.            0.            0.         
 cdsat              23.4075a      23.4075a      23.4075a      23.4075a    
 cssat              23.4075a      23.4075a      23.4075a      23.4075a    
 capbd             396.0064a     396.0064a     396.0064a     396.0064a    
 capbs             348.1024a     348.1024a     348.1024a     348.1024a    
 temp               25.0000       25.0000       25.0000       25.0000     
 aic                                                                      
 nf                  1.0000        1.0000        1.0000        1.0000     
 min                 0.            0.            0.            0.         
 rbdb               15.0000       15.0000       15.0000       15.0000     
 rbsb               15.0000       15.0000       15.0000       15.0000     
 rbpb                5.0000        5.0000        5.0000        5.0000     
 rbps               15.0000       15.0000       15.0000       15.0000     
 rbpd               15.0000       15.0000       15.0000       15.0000     
 trnqsmod            0.            0.            0.            0.         
 acnqsmod            0.            0.            0.            0.         
 rbodymod            1.0000        1.0000        1.0000        1.0000     
 rgatemod            1.0000        1.0000        1.0000        1.0000     
 geomod              1.0000        1.0000        1.0000        1.0000     
 rgeomod             0.            0.            0.            0.         
 delvto              0.            0.            0.            0.         
 mulu0               1.0000        1.0000        1.0000        1.0000     
 delk1               0.            0.            0.            0.         
 delnfct             0.            0.            0.            0.         
 deltox              0.            0.            0.            0.         
 sa                  0.            0.            0.            0.         
 sb                  0.            0.            0.            0.         
 sd                  0.            0.            0.            0.         
 saeff               0.            0.            0.            0.         
 sbeff               0.            0.            0.            0.         
 m                   1.0000        1.0000        1.0000        1.0000     
 w drawn           240.0000n     240.0000n     240.0000n     240.0000n    
 l drawn            45.0000n      45.0000n      45.0000n      45.0000n    
  
  
                                                                          
 element name        9:mnm2        9:mnm3        9:mnm4        9:mpm0     
 drain               0:net47       9:net14       9:net24       9:net14    
 gate                9:net14       0:b0          0:a1          0:b0       
 source              0:0           9:net24       0:0           0:vdd      
 bulk                0:0           0:0           0:0           0:vdd      
 model               0:g45n1svt    0:g45n1svt    0:g45n1svt    0:g45p1svt 
 w eff             110.0000n     230.0000n     230.0000n     230.0000n    
 l eff              17.5000n      17.5000n      17.5000n      17.5000n    
 rd eff              0.            0.            0.            0.         
 rs eff              0.            0.            0.            0.         
 cdsat              12.7102a      23.4075a      23.4075a      23.4075a    
 cssat              12.7102a      23.4075a      23.4075a      23.4075a    
 capbd             267.8632a     396.0064a     396.0064a     396.0064a    
 capbs             243.9112a     348.1024a     348.1024a     348.1024a    
 temp               25.0000       25.0000       25.0000       25.0000     
 aic                                                                      
 nf                  1.0000        1.0000        1.0000        1.0000     
 min                 0.            0.            0.            0.         
 rbdb               15.0000       15.0000       15.0000       15.0000     
 rbsb               15.0000       15.0000       15.0000       15.0000     
 rbpb                5.0000        5.0000        5.0000        5.0000     
 rbps               15.0000       15.0000       15.0000       15.0000     
 rbpd               15.0000       15.0000       15.0000       15.0000     
 trnqsmod            0.            0.            0.            0.         
 acnqsmod            0.            0.            0.            0.         
 rbodymod            1.0000        1.0000        1.0000        1.0000     
 rgatemod            1.0000        1.0000        1.0000        1.0000     
 geomod              1.0000        1.0000        1.0000        1.0000     
 rgeomod             0.            0.            0.            0.         
 delvto              0.            0.            0.            0.         
 mulu0               1.0000        1.0000        1.0000        1.0000     
 delk1               0.            0.            0.            0.         
 delnfct             0.            0.            0.            0.         
 deltox              0.            0.            0.            0.         
 sa                  0.            0.            0.            0.         
 sb                  0.            0.            0.            0.         
 sd                  0.            0.            0.            0.         
 saeff               0.            0.            0.            0.         
 sbeff               0.            0.            0.            0.         
 m                   1.0000        1.0000        1.0000        1.0000     
 w drawn           120.0000n     240.0000n     240.0000n     240.0000n    
 l drawn            45.0000n      45.0000n      45.0000n      45.0000n    
  
  
                                                                          
 element name        9:mpm1        9:mpm2       10:mnm2       10:mnm3     
 drain               9:net14       0:net47       0:net0126    10:net14    
 gate                0:a1          9:net14      10:net14       0:b0       
 source              0:vdd         0:vdd         0:0          10:net24    
 bulk                0:vdd         0:vdd         0:0           0:0        
 model               0:g45p1svt    0:g45p1svt    0:g45n1svt    0:g45n1svt 
 w eff             230.0000n     230.0000n     110.0000n     230.0000n    
 l eff              17.5000n      17.5000n      17.5000n      17.5000n    
 rd eff              0.            0.            0.            0.         
 rs eff              0.            0.            0.            0.         
 cdsat              23.4075a      23.4075a      12.7102a      23.4075a    
 cssat              23.4075a      23.4075a      12.7102a      23.4075a    
 capbd             396.0064a     396.0064a     267.8632a     396.0064a    
 capbs             348.1024a     348.1024a     243.9112a     348.1024a    
 temp               25.0000       25.0000       25.0000       25.0000     
 aic                                                                      
 nf                  1.0000        1.0000        1.0000        1.0000     
 min                 0.            0.            0.            0.         
 rbdb               15.0000       15.0000       15.0000       15.0000     
 rbsb               15.0000       15.0000       15.0000       15.0000     
 rbpb                5.0000        5.0000        5.0000        5.0000     
 rbps               15.0000       15.0000       15.0000       15.0000     
 rbpd               15.0000       15.0000       15.0000       15.0000     
 trnqsmod            0.            0.            0.            0.         
 acnqsmod            0.            0.            0.            0.         
 rbodymod            1.0000        1.0000        1.0000        1.0000     
 rgatemod            1.0000        1.0000        1.0000        1.0000     
 geomod              1.0000        1.0000        1.0000        1.0000     
 rgeomod             0.            0.            0.            0.         
 delvto              0.            0.            0.            0.         
 mulu0               1.0000        1.0000        1.0000        1.0000     
 delk1               0.            0.            0.            0.         
 delnfct             0.            0.            0.            0.         
 deltox              0.            0.            0.            0.         
 sa                  0.            0.            0.            0.         
 sb                  0.            0.            0.            0.         
 sd                  0.            0.            0.            0.         
 saeff               0.            0.            0.            0.         
 sbeff               0.            0.            0.            0.         
 m                   1.0000        1.0000        1.0000        1.0000     
 w drawn           240.0000n     240.0000n     120.0000n     240.0000n    
 l drawn            45.0000n      45.0000n      45.0000n      45.0000n    
  
  
                                                                          
 element name       10:mnm4       10:mpm0       10:mpm1       10:mpm2     
 drain              10:net24      10:net14      10:net14       0:net0126  
 gate                0:a0          0:b0          0:a0         10:net14    
 source              0:0           0:vdd         0:vdd         0:vdd      
 bulk                0:0           0:vdd         0:vdd         0:vdd      
 model               0:g45n1svt    0:g45p1svt    0:g45p1svt    0:g45p1svt 
 w eff             230.0000n     230.0000n     230.0000n     230.0000n    
 l eff              17.5000n      17.5000n      17.5000n      17.5000n    
 rd eff              0.            0.            0.            0.         
 rs eff              0.            0.            0.            0.         
 cdsat              23.4075a      23.4075a      23.4075a      23.4075a    
 cssat              23.4075a      23.4075a      23.4075a      23.4075a    
 capbd             396.0064a     396.0064a     396.0064a     396.0064a    
 capbs             348.1024a     348.1024a     348.1024a     348.1024a    
 temp               25.0000       25.0000       25.0000       25.0000     
 aic                                                                      
 nf                  1.0000        1.0000        1.0000        1.0000     
 min                 0.            0.            0.            0.         
 rbdb               15.0000       15.0000       15.0000       15.0000     
 rbsb               15.0000       15.0000       15.0000       15.0000     
 rbpb                5.0000        5.0000        5.0000        5.0000     
 rbps               15.0000       15.0000       15.0000       15.0000     
 rbpd               15.0000       15.0000       15.0000       15.0000     
 trnqsmod            0.            0.            0.            0.         
 acnqsmod            0.            0.            0.            0.         
 rbodymod            1.0000        1.0000        1.0000        1.0000     
 rgatemod            1.0000        1.0000        1.0000        1.0000     
 geomod              1.0000        1.0000        1.0000        1.0000     
 rgeomod             0.            0.            0.            0.         
 delvto              0.            0.            0.            0.         
 mulu0               1.0000        1.0000        1.0000        1.0000     
 delk1               0.            0.            0.            0.         
 delnfct             0.            0.            0.            0.         
 deltox              0.            0.            0.            0.         
 sa                  0.            0.            0.            0.         
 sb                  0.            0.            0.            0.         
 sd                  0.            0.            0.            0.         
 saeff               0.            0.            0.            0.         
 sbeff               0.            0.            0.            0.         
 m                   1.0000        1.0000        1.0000        1.0000     
 w drawn           240.0000n     240.0000n     240.0000n     240.0000n    
 l drawn            45.0000n      45.0000n      45.0000n      45.0000n    
  
  
                                                                          
 element name       11:mnm1       11:mnm0       11:mpm1       11:mpm0     
 drain              11:net16       0:net081      0:net081      0:net081   
 gate                0:net0116     0:net063      0:net063      0:net0116  
 source              0:0          11:net16       0:vdd         0:vdd      
 bulk                0:0           0:0           0:vdd         0:vdd      
 model               0:g45n1svt    0:g45n1svt    0:g45p1svt    0:g45p1svt 
 w eff             230.0000n     230.0000n     230.0000n     230.0000n    
 l eff              17.5000n      17.5000n      17.5000n      17.5000n    
 rd eff              0.            0.            0.            0.         
 rs eff              0.            0.            0.            0.         
 cdsat              23.4075a      23.4075a      23.4075a      23.4075a    
 cssat              23.4075a      23.4075a      23.4075a      23.4075a    
 capbd             396.0064a     396.0064a     396.0064a     396.0064a    
 capbs             348.1024a     348.1024a     348.1024a     348.1024a    
 temp               25.0000       25.0000       25.0000       25.0000     
 aic                                                                      
 nf                  1.0000        1.0000        1.0000        1.0000     
 min                 0.            0.            0.            0.         
 rbdb               15.0000       15.0000       15.0000       15.0000     
 rbsb               15.0000       15.0000       15.0000       15.0000     
 rbpb                5.0000        5.0000        5.0000        5.0000     
 rbps               15.0000       15.0000       15.0000       15.0000     
 rbpd               15.0000       15.0000       15.0000       15.0000     
 trnqsmod            0.            0.            0.            0.         
 acnqsmod            0.            0.            0.            0.         
 rbodymod            1.0000        1.0000        1.0000        1.0000     
 rgatemod            1.0000        1.0000        1.0000        1.0000     
 geomod              1.0000        1.0000        1.0000        1.0000     
 rgeomod             0.            0.            0.            0.         
 delvto              0.            0.            0.            0.         
 mulu0               1.0000        1.0000        1.0000        1.0000     
 delk1               0.            0.            0.            0.         
 delnfct             0.            0.            0.            0.         
 deltox              0.            0.            0.            0.         
 sa                  0.            0.            0.            0.         
 sb                  0.            0.            0.            0.         
 sd                  0.            0.            0.            0.         
 saeff               0.            0.            0.            0.         
 sbeff               0.            0.            0.            0.         
 m                   1.0000        1.0000        1.0000        1.0000     
 w drawn           240.0000n     240.0000n     240.0000n     240.0000n    
 l drawn            45.0000n      45.0000n      45.0000n      45.0000n    
  
  
                                                                          
 element name       12:mnm1       12:mnm0       12:mpm1       12:mpm0     
 drain              12:net16       0:net082      0:net082      0:net082   
 gate                0:net0117     0:net063      0:net063      0:net0117  
 source              0:0          12:net16       0:vdd         0:vdd      
 bulk                0:0           0:0           0:vdd         0:vdd      
 model               0:g45n1svt    0:g45n1svt    0:g45p1svt    0:g45p1svt 
 w eff             230.0000n     230.0000n     230.0000n     230.0000n    
 l eff              17.5000n      17.5000n      17.5000n      17.5000n    
 rd eff              0.            0.            0.            0.         
 rs eff              0.            0.            0.            0.         
 cdsat              23.4075a      23.4075a      23.4075a      23.4075a    
 cssat              23.4075a      23.4075a      23.4075a      23.4075a    
 capbd             396.0064a     396.0064a     396.0064a     396.0064a    
 capbs             348.1024a     348.1024a     348.1024a     348.1024a    
 temp               25.0000       25.0000       25.0000       25.0000     
 aic                                                                      
 nf                  1.0000        1.0000        1.0000        1.0000     
 min                 0.            0.            0.            0.         
 rbdb               15.0000       15.0000       15.0000       15.0000     
 rbsb               15.0000       15.0000       15.0000       15.0000     
 rbpb                5.0000        5.0000        5.0000        5.0000     
 rbps               15.0000       15.0000       15.0000       15.0000     
 rbpd               15.0000       15.0000       15.0000       15.0000     
 trnqsmod            0.            0.            0.            0.         
 acnqsmod            0.            0.            0.            0.         
 rbodymod            1.0000        1.0000        1.0000        1.0000     
 rgatemod            1.0000        1.0000        1.0000        1.0000     
 geomod              1.0000        1.0000        1.0000        1.0000     
 rgeomod             0.            0.            0.            0.         
 delvto              0.            0.            0.            0.         
 mulu0               1.0000        1.0000        1.0000        1.0000     
 delk1               0.            0.            0.            0.         
 delnfct             0.            0.            0.            0.         
 deltox              0.            0.            0.            0.         
 sa                  0.            0.            0.            0.         
 sb                  0.            0.            0.            0.         
 sd                  0.            0.            0.            0.         
 saeff               0.            0.            0.            0.         
 sbeff               0.            0.            0.            0.         
 m                   1.0000        1.0000        1.0000        1.0000     
 w drawn           240.0000n     240.0000n     240.0000n     240.0000n    
 l drawn            45.0000n      45.0000n      45.0000n      45.0000n    
  
  
                                                                          
 element name       13:mnm1       13:mnm0       13:mpm1       13:mpm0     
 drain              13:net16       0:net083      0:net083      0:net083   
 gate                0:net0118     0:net063      0:net063      0:net0118  
[...]
 xi9.xi13.net09   86:mpm1:g        86:mnm2:g        141:mnm0:d       141:mpm0:d       
 xi9.xi13.net22   86:mnm3:d        86:mnm1:s                                          
 xi9.xi13.net23   86:mnm2:d        86:mnm0:s                                          
 xi9.xi13.net24   86:mpm3:s        86:mpm1:d                                          
 xi9.xi13.net25   86:mpm2:s        86:mpm0:d                                          
 xi9.xi12.net010  87:mpm2:g        87:mnm0:g        142:mnm0:d       142:mpm0:d       
 xi9.xi12.net09   87:mpm1:g        87:mnm2:g        143:mnm0:d       143:mpm0:d       
 xi9.xi12.net22   87:mnm3:d        87:mnm1:s                                          
 xi9.xi12.net23   87:mnm2:d        87:mnm0:s                                          
 xi9.xi12.net24   87:mpm3:s        87:mpm1:d                                          
 xi9.xi12.net25   87:mpm2:s        87:mpm0:d                                          
 xi33.xi4.net12   89:mpm3:g        89:mnm0:g        149:mnm0:d       149:mpm0:d       
 xi33.xi4.net13   89:mpm2:d        89:mpm1:g        89:mnm3:g        89:mnm0:d        
 xi33.xi4.net25   89:mnm3:d        89:mnm1:s                                          
 xi33.xi4.net26   89:mpm3:s        89:mpm1:d                                          
 xi33.xi4.net27   89:mnm2:d        89:mnm0:s                                          
 xi33.xi4.net28   89:mpm2:s        89:mpm0:d                                          
 xi33.xi5.net12   90:mpm3:g        90:mnm0:g        150:mnm0:d       150:mpm0:d       
 xi33.xi5.net13   90:mpm2:d        90:mpm1:g        90:mnm3:g        90:mnm0:d        
 xi33.xi5.net25   90:mnm3:d        90:mnm1:s                                          
 xi33.xi5.net26   90:mpm3:s        90:mpm1:d                                          
 xi33.xi5.net27   90:mnm2:d        90:mnm0:s                                          
 xi33.xi5.net28   90:mpm2:s        90:mpm0:d                                          
 xi33.xi6.net12   91:mpm3:g        91:mnm0:g        151:mnm0:d       151:mpm0:d       
 xi33.xi6.net13   91:mpm2:d        91:mpm1:g        91:mnm3:g        91:mnm0:d        
 xi33.xi6.net25   91:mnm3:d        91:mnm1:s                                          
 xi33.xi6.net26   91:mpm3:s        91:mpm1:d                                          
 xi33.xi6.net27   91:mnm2:d        91:mnm0:s                                          
 xi33.xi6.net28   91:mpm2:s        91:mpm0:d                                          
 xi34.xi9.net12   92:mpm3:g        92:mnm0:g        152:mnm0:d       152:mpm0:d       
 xi34.xi9.net13   92:mpm2:d        92:mpm1:g        92:mnm3:g        92:mnm0:d        
 xi34.xi9.net25   92:mnm3:d        92:mnm1:s                                          
 xi34.xi9.net26   92:mpm3:s        92:mpm1:d                                          
 xi34.xi9.net27   92:mnm2:d        92:mnm0:s                                          
 xi34.xi9.net28   92:mpm2:s        92:mpm0:d                                          
 xi34.xi8.net12   93:mpm3:g        93:mnm0:g        153:mnm0:d       153:mpm0:d       
 xi34.xi8.net13   93:mpm2:d        93:mpm1:g        93:mnm3:g        93:mnm0:d        
 xi34.xi8.net25   93:mnm3:d        93:mnm1:s                                          
 xi34.xi8.net26   93:mpm3:s        93:mpm1:d                                          
 xi34.xi8.net27   93:mnm2:d        93:mnm0:s                                          
 xi34.xi8.net28   93:mpm2:s        93:mpm0:d                                          
 xi34.xi7.net12   94:mpm3:g        94:mnm0:g        154:mnm0:d       154:mpm0:d       
 xi34.xi7.net13   94:mpm2:d        94:mpm1:g        94:mnm3:g        94:mnm0:d        
 xi34.xi7.net25   94:mnm3:d        94:mnm1:s                                          
 xi34.xi7.net26   94:mpm3:s        94:mpm1:d                                          
 xi34.xi7.net27   94:mnm2:d        94:mnm0:s                                          
 xi34.xi7.net28   94:mpm2:s        94:mpm0:d                                          
 xi34.xi6.net12   95:mpm3:g        95:mnm0:g        155:mnm0:d       155:mpm0:d       
 xi34.xi6.net13   95:mpm2:d        95:mpm1:g        95:mnm3:g        95:mnm0:d        
 xi34.xi6.net25   95:mnm3:d        95:mnm1:s                                          
 xi34.xi6.net26   95:mpm3:s        95:mpm1:d                                          
 xi34.xi6.net27   95:mnm2:d        95:mnm0:s                                          
 xi34.xi6.net28   95:mpm2:s        95:mpm0:d                                          
 xi34.xi5.net12   96:mpm3:g        96:mnm0:g        156:mnm0:d       156:mpm0:d       
 xi34.xi5.net13   96:mpm2:d        96:mpm1:g        96:mnm3:g        96:mnm0:d        
 xi34.xi5.net25   96:mnm3:d        96:mnm1:s                                          
 xi34.xi5.net26   96:mpm3:s        96:mpm1:d                                          
 xi34.xi5.net27   96:mnm2:d        96:mnm0:s                                          
 xi34.xi5.net28   96:mpm2:s        96:mpm0:d                                          
 144:net12        144:mpm3:g       144:mnm0:g       157:mnm0:d       157:mpm0:d       
 144:net13        144:mpm2:d       144:mpm1:g       144:mnm3:g       144:mnm0:d       
 144:net25        144:mnm3:d       144:mnm1:s                                         
 144:net26        144:mpm3:s       144:mpm1:d                                         
 144:net27        144:mnm2:d       144:mnm0:s                                         
 144:net28        144:mpm2:s       144:mpm0:d                                         
 145:net12        145:mpm3:g       145:mnm0:g       158:mnm0:d       158:mpm0:d       
 145:net13        145:mpm2:d       145:mpm1:g       145:mnm3:g       145:mnm0:d       
 145:net25        145:mnm3:d       145:mnm1:s                                         
 145:net26        145:mpm3:s       145:mpm1:d                                         
 145:net27        145:mnm2:d       145:mnm0:s                                         
 145:net28        145:mpm2:s       145:mpm0:d                                         
 146:net12        146:mpm3:g       146:mnm0:g       159:mnm0:d       159:mpm0:d       
 146:net13        146:mpm2:d       146:mpm1:g       146:mnm3:g       146:mnm0:d       
 146:net25        146:mnm3:d       146:mnm1:s                                         
 146:net26        146:mpm3:s       146:mpm1:d                                         
 146:net27        146:mnm2:d       146:mnm0:s                                         
 146:net28        146:mpm2:s       146:mpm0:d                                         
 147:net12        147:mpm3:g       147:mnm0:g       160:mnm0:d       160:mpm0:d       
 147:net13        147:mpm2:d       147:mpm1:g       147:mnm3:g       147:mnm0:d       
 147:net25        147:mnm3:d       147:mnm1:s                                         
 147:net26        147:mpm3:s       147:mpm1:d                                         
 147:net27        147:mnm2:d       147:mnm0:s                                         
 147:net28        147:mpm2:s       147:mpm0:d                                         
 148:net12        148:mpm3:g       148:mnm0:g       161:mnm0:d       161:mpm0:d       
 148:net13        148:mpm2:d       148:mpm1:g       148:mnm3:g       148:mnm0:d       
 148:net25        148:mnm3:d       148:mnm1:s                                         
 148:net26        148:mpm3:s       148:mpm1:d                                         
 148:net27        148:mnm2:d       148:mnm0:s                                         
 148:net28        148:mpm2:s       148:mpm0:d                                         
 **info** set option symb=1 internally to help for convergence.
 *****************************************************************
 ******  option summary
 ******
 runlvl  = 3         bypass  = 2.0000    
  Opening plot unit= 15
 file=mppl.pa0

 **info** dc convergence successful at GMINDC ramping method 
 ******  
 * first line is treated as comment

 ****** operating point information tnom=  25.000 temp=  25.000 ******
 ****** operating point status is voltage   simulation time is     0.     
      node    =voltage        node    =voltage        node    =voltage

 +  0:a0      =   1.1000    0:a1      =   1.1000    0:a2      =   1.1000 
 +  0:a3      =   1.1000    0:b0      =   1.1000    0:b1      =   1.1000 
 +  0:b2      =   0.        0:b3      =   0.        0:net0100 = 412.1902m
 +  0:net0101 = 827.3343m   0:net0102 = 325.7207m   0:net0103 = 916.5807m
 +  0:net0107 =  54.7139u   0:net0114 = 917.3987m   0:net0116 = 917.3987m
 +  0:net0117 = 917.3987m   0:net0118 = 917.3987m   0:net0124 =   1.1000 
 +  0:net0125 = 152.5402u   0:net0126 =   1.1000    0:net049  =  61.8627u
 +  0:net050  =  61.8627u   0:net051  =  69.0603u   0:net052  =   1.0717 
 +  0:net053  =  61.8412u   0:net054  = 128.5790u   0:net055  = 128.5993u
 +  0:net063  = 410.3376m   0:net072  =   1.1000    0:net073  = 156.5817u
 +  0:net076  = 159.8302u   0:net078  = 244.4691u   0:net079  = 385.0228u
 +  0:net081  =   1.0259    0:net082  =   1.0259    0:net083  =   1.0259 
 +  0:net088  = 123.2644u   0:net090  = 122.7015u   0:net091  = 122.7014u
 +  0:net092  =  69.0605u   0:net096  = 408.4762m   0:net097  = 358.7983m
 +  0:net098  = 412.1902m   0:net099  = 358.7983m   0:net24   =   1.1000 
 +  0:net30   =   1.1000    0:net39   = 122.9360u   0:net42   = 122.9360u
 +  0:net45   =   1.1000    0:net47   =   1.1000    0:net48   =   1.1000 
 +  0:net49   =   1.1000    0:net50   = 152.6238u   0:net54   =   1.1000 
 +  0:net55   = 152.6110u   0:net59   =   1.1000    0:net60   =   1.1000 
 +  0:net62   =   1.1000    0:p0      =   1.0083    0:p1      = 246.7278m
 +  0:p2      =   1.0083    0:p3      =   1.1000    0:p4      =   1.1000 
 +  0:p5      =   1.1000    0:p6      =   1.1000    0:p7      =   1.1000 
 +  0:phi     =   0.        0:vdd     =   1.1000    1:net14   =   1.0259 
 +  1:net24   =  32.3101m   2:net14   =   1.1000    2:net24   =  17.8626u
 +  3:net14   =   1.1000    3:net24   =  17.8626u   4:net14   =   1.1000 
 +  4:net24   =  17.8626u   5:net14   = 112.1155u   5:net24   =  56.4688u
 +  6:net14   = 112.1155u   6:net24   =  56.4688u   7:net14   = 112.1155u
 +  7:net24   =  56.4688u   8:net14   = 112.1155u   8:net24   =  56.4688u
 +  9:net14   = 112.1155u   9:net24   =  56.4688u  10:net14   = 112.1155u
 + 10:net24   =  56.4688u  11:net16   =  32.3101m  12:net16   =  32.3101m
 + 13:net16   =  32.3100m  14:net16   =  15.7942m  15:net16   =  61.8789u
 + 16:net16   =  61.8789u  21:net20   =   1.1000   21:net21   =   1.1000 
 + 21:net8    =   1.1000   22:net20   =   1.1000   22:net21   =   1.1000 
 + 22:net8    =   1.1000   23:net20   =   1.1000   23:net21   =   1.1000 
 + 23:net8    =   1.1000   24:net20   =  20.7508m  24:net21   =   1.1000 
 + 24:net8    =  33.2236m  25:net20   =   1.0959   25:net21   =   1.1000 
 + 25:net8    = 250.9617u  26:net20   =   1.0959   26:net21   =   1.1000 
 + 26:net8    = 250.9652u  27:net20   =   1.1000   27:net21   = 112.4351u
 + 27:net8    =   1.1000   28:net20   =   1.1000   28:net21   = 112.4139u
 + 28:net8    =   1.1000   29:net20   = 112.1111u  29:net21   =   1.1000 
 + 29:net8    = 160.1631u  32:net12   =   1.1000   32:net13   =  43.2890u
 + 32:net25   =  89.8287m  32:net26   =   1.1000   32:net27   =  22.0561u
 + 32:net28   = 250.4607m  33:net12   =   1.1000   33:net13   =   1.1000 
 + 33:net25   =   1.1495u  33:net26   =   1.0097   33:net27   = 849.6964m
 + 33:net28   =   1.1000   34:net12   =   1.1000   34:net13   =  43.3101u
 + 34:net25   =  89.8286m  34:net26   =   1.1000   34:net27   =  22.0667u
 + 34:net28   = 250.4766m  35:net14   =   1.1000   35:net24   =  18.2562u
 + 36:net010  =   1.1000   36:net09   = 377.4435u  36:net22   =  18.2554u
 + 36:net23   = 849.5494m  36:net24   =   1.1000   36:net25   =   1.1000 
 + 37:net14   =   1.1000   37:net24   =  17.9210u  38:net010  =   1.1000 
 + 38:net09   =  61.8238u  38:net22   =  17.9203u  38:net23   = 849.7529m
 + 38:net24   =   1.1000   38:net25   =   1.1000   39:net14   =   1.1000 
 + 39:net24   = 849.7321m  40:net010  =  62.1537u  40:net09   =   1.1000 
 + 40:net22   = 849.7294m  40:net23   =  17.8912u  40:net24   =   1.1000 
 + 40:net25   =   1.1000   41:net14   = 112.1680u  41:net24   =  56.4950u
 + 42:net010  =  54.7139u  42:net09   =  61.7095u  42:net22   =  76.6805u
 + 42:net23   =  76.1534u  42:net24   =   1.1000   42:net25   = 250.5125m
 + 43:net16   =  18.0455u  44:net16   =  62.0432u  45:net16   = 849.6974m
 + 46:net010  =  62.1538u  46:net09   =   1.1000   46:net22   = 849.6950m
 + 46:net23   =  17.8914u  46:net24   =   1.1000   46:net25   =   1.1000 
 + 47:net010  =  62.1267u  47:net09   =   1.1000   47:net22   = 849.5390m
 + 47:net23   =  17.8913u  47:net24   =   1.1000   47:net25   =   1.1000 
 + 48:net16   = 797.8644m  49:net16   =  61.7616u  50:net16   = 849.6974m
 + 51:net010  =  62.1539u  51:net09   =   1.1000   51:net22   = 849.6950m
 + 51:net23   =  17.8914u  51:net24   =   1.1000   51:net25   =   1.1000 
 + 52:net010  =   1.1000   52:net09   = 377.4234u  52:net22   =  18.2127u
 + 52:net23   = 849.5493m  52:net24   =   1.1000   52:net25   =   1.1000 
 + 53:net16   = 797.8623m  54:net16   =  61.7616u  55:net16   = 849.7319m
 + 56:net010  =  62.1539u  56:net09   =   1.1000   56:net22   = 849.7296m
 + 56:net23   =  17.8914u  56:net24   =   1.1000   56:net25   =   1.1000 
 + 57:net010  =   1.1000   57:net09   = 377.4234u  57:net22   =  18.2143u
 + 57:net23   = 849.5493m  57:net24   =   1.1000   57:net25   =   1.1000 
 + 58:net16   =  10.9562m  59:net16   = 836.3621m  60:net16   = 119.5298m
 + 61:net010  =   1.1000   61:net09   =   1.1000   61:net22   = 112.1759u
 + 61:net23   =  78.7010u  61:net24   = 273.1200m  61:net25   =   1.1000 
 + 62:net010  =  22.5522m  62:net09   = 121.8042u  62:net22   =  15.4505m
 + 62:net23   =  16.9251m  62:net24   =   1.0894   62:net25   = 287.4937m
 + 63:net16   = 137.7917m  64:net16   =  64.7316u  65:net16   =  97.9505m
 + 66:net010  =   1.1000   66:net09   =   1.1000   66:net22   =  79.9339u
 + 66:net23   =  80.3254u  66:net24   = 250.6449m  66:net25   =   1.1000 
 + 67:net010  =   1.0715   67:net09   =   1.0466   67:net22   =  79.1777u
 + 67:net23   = 126.2892u  67:net24   = 528.2980m  67:net25   =   1.0999 
 + 68:net16   = 137.7918m  69:net16   =  64.7416u  70:net16   =  90.6493u
 + 71:net010  =   1.1000   71:net09   =   1.0487   71:net22   =  45.7281n
 + 71:net23   = 123.4837u  71:net24   = 283.2938m  71:net25   =   1.0999 
 + 72:net010  =   1.0715   72:net09   =   1.0466   72:net22   =  79.1787u
 + 72:net23   = 126.2909u  72:net24   = 528.2980m  72:net25   =   1.0999 
 + 73:net16   = 849.7249m  74:net16   =  17.9158u  75:net16   =  56.6285u
 + 76:net010  =  54.7502u  76:net09   =  61.7282u  76:net22   =  76.7222u
 + 76:net23   =  76.1951u  76:net24   =   1.1000   76:net25   = 250.5207m
 + 77:net010  =   1.1000   77:net09   =  61.8238u  77:net22   =  17.9197u
 + 77:net23   = 849.7523m  77:net24   =   1.1000   77:net25   =   1.1000 
 + 78:net16   = 849.7138m  79:net16   =  17.9156u  80:net16   =  56.6177u
 + 81:net010  =  54.7502u  81:net09   =  61.7066u  81:net22   =  76.7157u
 + 81:net23   =  76.1888u  81:net24   =   1.1000   81:net25   = 250.5112m
 + 82:net010  =   1.1000   82:net09   =  61.8467u  82:net22   =  17.9198u
 + 82:net23   = 849.7523m  82:net24   =   1.1000   82:net25   =   1.1000 
 + 83:net16   =  56.4666u  84:net16   = 849.7134m  85:net16   =  17.9386u
 + 86:net010  =   1.1000   86:net09   =  61.8493u  86:net22   =  17.9377u
 + 86:net23   = 849.7527m  86:net24   =   1.1000   86:net25   =   1.1000 
 + 87:net010  =  54.7139u  87:net09   =  61.7095u  87:net22   =  80.4919u
 + 87:net23   =  79.9536u  87:net24   =   1.1000   87:net25   = 250.5133m
 + 89:net12   =   1.1000   89:net13   =  43.2997u  89:net25   =  74.2446m
 + 89:net26   =   1.1000   89:net27   =  22.0615u  89:net28   = 250.4689m
 + 90:net12   =   1.1000   90:net13   =   1.1000   90:net25   =   1.4059u
 + 90:net26   =   1.0176   90:net27   = 849.7948m  90:net28   =   1.1000 
 + 91:net12   =   1.1000   91:net13   =  43.2765u  91:net25   =  81.8931m
 + 91:net26   =   1.1000   91:net27   =  22.0498u  91:net28   = 250.4513m
 + 92:net12   =   1.1000   92:net13   =   1.1000   92:net25   =   1.7769u
 + 92:net26   =   1.0260   92:net27   = 849.7948m  92:net28   =   1.1000 
 + 93:net12   =   1.1000   93:net13   =  43.2765u  93:net25   =  81.9636m
 + 93:net26   =   1.1000   93:net27   =  22.0498u  93:net28   = 250.4513m
 + 94:net12   =   1.1000   94:net13   =  43.2765u  94:net25   =  81.9636m
 + 94:net26   =   1.1000   94:net27   =  22.0498u  94:net28   = 250.4513m
 + 95:net12   =   1.1000   95:net13   =  43.2765u  95:net25   =  81.9636m
 + 95:net26   =   1.1000   95:net27   =  22.0498u  95:net28   = 250.4513m
 + 96:net12   =   1.1000   96:net13   =  43.2765u  96:net25   =  81.9636m
 + 96:net26   =   1.1000   96:net27   =  22.0498u  96:net28   = 250.4513m
 +144:net12   =   1.1000  144:net13   =   1.1000  144:net25   =   1.7864u
 +144:net26   =   1.0262  144:net27   = 849.7549m 144:net28   =   1.1000 
 +145:net12   =   1.1000  145:net13   =   1.1000  145:net25   =   1.5373u
 +145:net26   =   1.0209  145:net27   = 849.6964m 145:net28   =   1.1000 
 +146:net12   =   1.1000  146:net13   =   1.1000  146:net25   =   1.7864u
 +146:net26   =   1.0262  146:net27   = 849.7549m 146:net28   =   1.1000 
 +147:net12   =   1.1000  147:net13   =   1.1000  147:net25   =   1.5373u
 +147:net26   =   1.0209  147:net27   = 849.6964m 147:net28   =   1.1000 
 +148:net12   =   1.1000  148:net13   =   1.1000  148:net25   =   1.7674u
 +148:net26   =   1.0258  148:net27   = 849.7550m 148:net28   =   1.1000 


          ***** job concluded
 ******  
 * first line is treated as comment

 ****** job statistics summary tnom=  25.000 temp=  25.000 ******
  
 ******  Machine Information  ******
 CPU:
 model name	: Intel(R) Xeon(R) Silver 4216 CPU @ 2.10GHz
 cpu MHz	: 2900.001
 CPU(s)		: 64
  
 OS:
 Linux version 4.18.0-553.16.1.el8_10.x86_64 (mockbuild@x86-64-01.build.eng.rdu2.redhat.com) (gcc version 8.5.0 20210514 (Red Hat 8.5.0-22) (GCC)) #1 SMP Thu Aug 1 04:16:12 EDT 2024

 System loadavg : 8.00 7.91 7.52 10/1356 226794


  ******  PrimeSim HSPICE Threads Information  ******

  Command Line Threads Count :     1
  Available CPU Count        :    64
  Actual Threads Count       :     1


  ****** Statistics of Ignored Elements ******
  Voltage Sources :       1

  ******  Circuit Statistics  ******
  # nodes       =    2945 # elements   =     650
  # resistors   =       0 # capacitors =       0 # inductors   =       0
  # mutual_inds =       0 # vccs       =       0 # vcvs        =       0
  # cccs        =       0 # ccvs       =       0 # volt_srcs   =       2
  # curr_srcs   =       0 # diodes     =       0 # bjts        =       0
  # jfets       =       0 # mosfets    =     640 # U elements  =       0
  # T elements  =       0 # W elements =       0 # B elements  =       0
  # S elements  =       0 # P elements =       0 # va device   =       0
  # vector_srcs =       8 # N elements =       0


  ******  Runtime Statistics (seconds)  ******

  analysis           time    # points   tot. iter  conv.iter
  op point           0.20           1         124
  transient          0.42        5001         537         199 rev=         9
  readin             0.01
  errchk             0.10
  setup              0.21
  output             0.00


           peak memory used        529.15 megabytes
           total cpu time            0.94 seconds
           total elapsed time        1.00 seconds
           job started at     09:29:07 04/07/2025
           job ended   at     09:29:08 04/07/2025

>info:         ***** hspice job concluded
           job total runtime         1.00 seconds


 lic: Release hspice token(s) 
 lic: total license checkout elapse time:        0.05(s)
