Using: /opt/synopsys/hspice/hspice/T-2022.06-3/hspice/linux64/hspice mppl.sp
 ****** PrimeSim HSPICE -- T-2022.06-3 linux64 (Aug 04 2022 7739753) ******
  Copyright (c) 1986 - 2025 by Synopsys, Inc. All Rights Reserved.
  This software and the associated documentation are proprietary
  to Synopsys, Inc. This software may only be used in accordance
  with the terms and conditions of a written license agreement with
  Synopsys, Inc. All other use, reproduction, or distribution of
  this software is strictly prohibited.
  Input File: mppl.sp                                                           
  Command line options: /opt/synopsys/hspice/hspice/T-2022.06-3/hspice/linux64/hspice mppl.sp
  Start time: Mon Mar 31 20:10:22 2025
 lic:  
 lic: FLEXlm: SDK_12.10 
 lic: USER:   cdeclercq            HOSTNAME: vlsicad.ecs.umass.edu 
 lic: HOSTID: 13ac8554             PID:      4076505 
 lic: Using FLEXlm license file: 
 lic: 27020@vlsicad.ecs.umass.edu 
 lic: Checkout 1 hspice 
 lic: License/Maintenance for hspice will expire on 09-sep-2025/2023.12 
 lic: 1(in_use)/50(total) FLOATING license(s) on SERVER 27020@vlsicad.ecs.umass.edu 
 lic:   
 scientific notation:
 a=10**-18  f=10**-15  p=10**-12  n=10**-9  u=10**-6
 m=10**-3   k=10**3    x=10**6    g=10**9 
  **warning** (mppl.sp:36) Global net name "gnd" in subckt pin list. The pin will be connected to the local net. Recommend to not use global net names in subckt pin lists.
1****** PrimeSim HSPICE -- T-2022.06-3 linux64 (Aug 04 2022 7739753) ******
 ******  
 * first line is treated as comment

 ****** circuit name directory
 circuit number to circuit name directory
   number circuitname                     definition         multiplier
        0 main circuit
        1 xi23.                           and                1.00 
        2 xi15.                           and                1.00 
        3 xi14.                           and                1.00 
        4 xi13.                           and                1.00 
        5 xi7.                            and                1.00 
        6 xi5.                            and                1.00 
        7 xi4.                            and                1.00 
        8 xi2.                            and                1.00 
        9 xi1.                            and                1.00 
       10 xi0.                            and                1.00 
       11 xi22.                           nand               1.00 
       12 xi21.                           nand               1.00 
       13 xi20.                           nand               1.00 
       14 xi12.                           nand               1.00 
       15 xi6.                            nand               1.00 
       16 xi3.                            nand               1.00 
       17 xi31.                           half_adder         1.00 
       18 xi32.                           half_adder         1.00 
       19 xi30.                           half_adder         1.00 
       20 xi29.                           half_adder         1.00 
       21 xi28.                           full_adder         1.00 
       22 xi27.                           full_adder         1.00 
       23 xi26.                           full_adder         1.00 
       24 xi19.                           full_adder         1.00 
       25 xi18.                           full_adder         1.00 
       26 xi17.                           full_adder         1.00 
       27 xi11.                           full_adder         1.00 
       28 xi10.                           full_adder         1.00 
       29 xi9.                            full_adder         1.00 
       30 xi33.                           dreg8b             1.00 
       31 xi38.                           dreg4b             1.00 
       32 xi37.                           dreg1b             1.00 
       33 xi36.                           dreg1b             1.00 
       34 xi35.                           dreg1b             1.00 
       35 xi31.xi0.                       and                1.00 
       36 xi31.xi1.                       xor                1.00 
       37 xi32.xi0.                       and                1.00 
       38 xi32.xi1.                       xor                1.00 
       39 xi30.xi0.                       and                1.00 
       40 xi30.xi1.                       xor                1.00 
       41 xi29.xi0.                       and                1.00 
       42 xi29.xi1.                       xor                1.00 
       43 xi28.xi10.                      nand               1.00 
       44 xi28.xi11.                      nand               1.00 
       45 xi28.xi9.                       nand               1.00 
       46 xi28.xi13.                      xor                1.00 
       47 xi28.xi12.                      xor                1.00 
       48 xi27.xi10.                      nand               1.00 
       49 xi27.xi11.                      nand               1.00 
       50 xi27.xi9.                       nand               1.00 
       51 xi27.xi13.                      xor                1.00 
       52 xi27.xi12.                      xor                1.00 
       53 xi26.xi10.                      nand               1.00 
       54 xi26.xi11.                      nand               1.00 
       55 xi26.xi9.                       nand               1.00 
       56 xi26.xi13.                      xor                1.00 
       57 xi26.xi12.                      xor                1.00 
       58 xi19.xi10.                      nand               1.00 
       59 xi19.xi11.                      nand               1.00 
       60 xi19.xi9.                       nand               1.00 
       61 xi19.xi13.                      xor                1.00 
       62 xi19.xi12.                      xor                1.00 
       63 xi18.xi10.                      nand               1.00 
       64 xi18.xi11.                      nand               1.00 
       65 xi18.xi9.                       nand               1.00 
       66 xi18.xi13.                      xor                1.00 
       67 xi18.xi12.                      xor                1.00 
       68 xi17.xi10.                      nand               1.00 
       69 xi17.xi11.                      nand               1.00 
       70 xi17.xi9.                       nand               1.00 
       71 xi17.xi13.                      xor                1.00 
       72 xi17.xi12.                      xor                1.00 
       73 xi11.xi10.                      nand               1.00 
       74 xi11.xi11.                      nand               1.00 
       75 xi11.xi9.                       nand               1.00 
       76 xi11.xi13.                      xor                1.00 
       77 xi11.xi12.                      xor                1.00 
       78 xi10.xi10.                      nand               1.00 
       79 xi10.xi11.                      nand               1.00 
       80 xi10.xi9.                       nand               1.00 
       81 xi10.xi13.                      xor                1.00 
       82 xi10.xi12.                      xor                1.00 
       83 xi9.xi10.                       nand               1.00 
       84 xi9.xi11.                       nand               1.00 
       85 xi9.xi9.                        nand               1.00 
       86 xi9.xi13.                       xor                1.00 
       87 xi9.xi12.                       xor                1.00 
       88 xi33.xi0.                       dreg5b             1.00 
       89 xi33.xi3.                       dreg1b             1.00 
       90 xi33.xi2.                       dreg1b             1.00 
       91 xi33.xi1.                       dreg1b             1.00 
       92 xi38.xi3.                       dreg1b             1.00 
       93 xi38.xi2.                       dreg1b             1.00 
       94 xi38.xi1.                       dreg1b             1.00 
       95 xi38.xi0.                       dreg1b             1.00 
       96 xi37.xi0.                       nand               1.00 
       97 xi37.xi1.                       flipflop           1.00 
       98 xi37.xi2.                       inv                1.00 
       99 xi36.xi0.                       nand               1.00 
      100 xi36.xi1.                       flipflop           1.00 
      101 xi36.xi2.                       inv                1.00 
      102 xi35.xi0.                       nand               1.00 
      103 xi35.xi1.                       flipflop           1.00 
      104 xi35.xi2.                       inv                1.00 
      105 xi31.xi1.xi2.                   inv                1.00 
      106 xi31.xi1.xi3.                   inv                1.00 
      107 xi32.xi1.xi2.                   inv                1.00 
      108 xi32.xi1.xi3.                   inv                1.00 
      109 xi30.xi1.xi2.                   inv                1.00 
      110 xi30.xi1.xi3.                   inv                1.00 
      111 xi29.xi1.xi2.                   inv                1.00 
      112 xi29.xi1.xi3.                   inv                1.00 
      113 xi28.xi13.xi2.                  inv                1.00 
      114 xi28.xi13.xi3.                  inv                1.00 
      115 xi28.xi12.xi2.                  inv                1.00 
      116 xi28.xi12.xi3.                  inv                1.00 
      117 xi27.xi13.xi2.                  inv                1.00 
      118 xi27.xi13.xi3.                  inv                1.00 
      119 xi27.xi12.xi2.                  inv                1.00 
      120 xi27.xi12.xi3.                  inv                1.00 
      121 xi26.xi13.xi2.                  inv                1.00 
      122 xi26.xi13.xi3.                  inv                1.00 
      123 xi26.xi12.xi2.                  inv                1.00 
      124 xi26.xi12.xi3.                  inv                1.00 
      125 xi19.xi13.xi2.                  inv                1.00 
      126 xi19.xi13.xi3.                  inv                1.00 
      127 xi19.xi12.xi2.                  inv                1.00 
      128 xi19.xi12.xi3.                  inv                1.00 
      129 xi18.xi13.xi2.                  inv                1.00 
      130 xi18.xi13.xi3.                  inv                1.00 
      131 xi18.xi12.xi2.                  inv                1.00 
      132 xi18.xi12.xi3.                  inv                1.00 
      133 xi17.xi13.xi2.                  inv                1.00 
      134 xi17.xi13.xi3.                  inv                1.00 
      135 xi17.xi12.xi2.                  inv                1.00 
      136 xi17.xi12.xi3.                  inv                1.00 
      137 xi11.xi13.xi2.                  inv                1.00 
      138 xi11.xi13.xi3.                  inv                1.00 
      139 xi11.xi12.xi2.                  inv                1.00 
      140 xi11.xi12.xi3.                  inv                1.00 
      141 xi10.xi13.xi2.                  inv                1.00 
      142 xi10.xi13.xi3.                  inv                1.00 
      143 xi10.xi12.xi2.                  inv                1.00 
      144 xi10.xi12.xi3.                  inv                1.00 
      145 xi9.xi13.xi2.                   inv                1.00 
      146 xi9.xi13.xi3.                   inv                1.00 
      147 xi9.xi12.xi2.                   inv                1.00 
      148 xi9.xi12.xi3.                   inv                1.00 
      149 xi33.xi0.xi4.                   dreg1b             1.00 
      150 xi33.xi0.xi3.                   dreg1b             1.00 
      151 xi33.xi0.xi2.                   dreg1b             1.00 
      152 xi33.xi0.xi1.                   dreg1b             1.00 
      153 xi33.xi0.xi0.                   dreg1b             1.00 
      154 xi33.xi3.xi0.                   nand               1.00 
      155 xi33.xi3.xi1.                   flipflop           1.00 
      156 xi33.xi3.xi2.                   inv                1.00 
      157 xi33.xi2.xi0.                   nand               1.00 
      158 xi33.xi2.xi1.                   flipflop           1.00 
      159 xi33.xi2.xi2.                   inv                1.00 
      160 xi33.xi1.xi0.                   nand               1.00 
      161 xi33.xi1.xi1.                   flipflop           1.00 
      162 xi33.xi1.xi2.                   inv                1.00 
      163 xi38.xi3.xi0.                   nand               1.00 
      164 xi38.xi3.xi1.                   flipflop           1.00 
      165 xi38.xi3.xi2.                   inv                1.00 
      166 xi38.xi2.xi0.                   nand               1.00 
      167 xi38.xi2.xi1.                   flipflop           1.00 
      168 xi38.xi2.xi2.                   inv                1.00 
      169 xi38.xi1.xi0.                   nand               1.00 
      170 xi38.xi1.xi1.                   flipflop           1.00 
      171 xi38.xi1.xi2.                   inv                1.00 
      172 xi38.xi0.xi0.                   nand               1.00 
      173 xi38.xi0.xi1.                   flipflop           1.00 
      174 xi38.xi0.xi2.                   inv                1.00 
      175 xi37.xi1.xi0.                   inv                1.00 
      176 xi36.xi1.xi0.                   inv                1.00 
      177 xi35.xi1.xi0.                   inv                1.00 
      178 xi33.xi0.xi4.xi0.               nand               1.00 
      179 xi33.xi0.xi4.xi1.               flipflop           1.00 
      180 xi33.xi0.xi4.xi2.               inv                1.00 
      181 xi33.xi0.xi3.xi0.               nand               1.00 
      182 xi33.xi0.xi3.xi1.               flipflop           1.00 
      183 xi33.xi0.xi3.xi2.               inv                1.00 
      184 xi33.xi0.xi2.xi0.               nand               1.00 
      185 xi33.xi0.xi2.xi1.               flipflop           1.00 
      186 xi33.xi0.xi2.xi2.               inv                1.00 
      187 xi33.xi0.xi1.xi0.               nand               1.00 
      188 xi33.xi0.xi1.xi1.               flipflop           1.00 
      189 xi33.xi0.xi1.xi2.               inv                1.00 
      190 xi33.xi0.xi0.xi0.               nand               1.00 
      191 xi33.xi0.xi0.xi1.               flipflop           1.00 
      192 xi33.xi0.xi0.xi2.               inv                1.00 
      193 xi33.xi3.xi1.xi0.               inv                1.00 
      194 xi33.xi2.xi1.xi0.               inv                1.00 
      195 xi33.xi1.xi1.xi0.               inv                1.00 
      196 xi38.xi3.xi1.xi0.               inv                1.00 
      197 xi38.xi2.xi1.xi0.               inv                1.00 
      198 xi38.xi1.xi1.xi0.               inv                1.00 
      199 xi38.xi0.xi1.xi0.               inv                1.00 
      200 xi33.xi0.xi4.xi1.xi0.           inv                1.00 
      201 xi33.xi0.xi3.xi1.xi0.           inv                1.00 
      202 xi33.xi0.xi2.xi1.xi0.           inv                1.00 
      203 xi33.xi0.xi1.xi1.xi0.           inv                1.00 
      204 xi33.xi0.xi0.xi1.xi0.           inv                1.00 


 circuit parameter definitions
  parameter          =  value 

     0:vdd_val                                                 =   1.1000       
     0:tris                                                    =  50.0000       
     0:tper                                                    = 500.0000       
     0:tfall                                                   =  50.0000       
     0:tpw                                                     = 200.0000       
     0:tdlay                                                   =   0.           




 constants  - tnom         kt           vt           gapsi        ni
            298.15000    4.1163e-21    25.69184m     1.11562    1.2565e+16 
 ******  
 * first line is treated as comment

 ****** mos   model parameters tnom=  25.000 temp=  25.000 ******
 Model file: /opt/cadence/gpdk045/gpdk045_v_6_0/models/hspice/g45n1svt.inc
 Model line:            3
 Model Name: g45n1svt  
 BSIM4 Model (Level 54)
    MOBMOD = 0
    BINUNIT = 1
    PARAMCHK = 1
    CAPMOD = 2
    DIOMOD = 1
    RDSMOD = 0
    TRNQSMOD = 0
    ACNQSMOD = 0
    RBODYMOD = 1
    RGATEMOD = 1
    PERMOD = 1
    GEOMOD = 1
    RGEOMOD = 0
    FNOIMOD = 1
    TNOIMOD = 0
    IGCMOD = 1
    IGBMOD = 1
    STIMOD = 0
    VERSION =      4 
    TOXREF = 1.14e-09 
    TOXE = 1.14e-09 
    TOXP =  1e-09 
    TOXM = 1.14e-09 
    DTOX = 1.4e-10 
    EPSROX =    3.9 
    CDSC =      0 
    CDSCB =      0 
    CDSCD =      0 
    CIT =      0 
    NFACTOR =    2.1 
    XJ = 1.98e-08 
    VSAT = 1.23e+05 
    A0 =      1 
    AGS =      0 
    A1 =      0 
    A2 =      1 
    AT = 3.3e+04 
    KETA =   0.04 
    NSUB =  6e+16 
    NDEP = 3.4e+18 
    NSD =  2e+20 
    NGATE =  3e+20 
    GAMMA1 =      0 
    GAMMA2 =      0 
    VBX =      0 
    VBM =     -3 
    XT = 1.55e-07 
    K1 =    0.4 
    KT1 =  -0.11 
    KT1L =      0 
    KT2 =  0.022 
    K2 =      0 
    K3 =      0 
    K3B =      0 
    LPE0 =      0 
    LPEB =      0 
    DVTP0 =  1e-10 
    DVTP1 =    0.1 
    W0 = 2.5e-06 
    DVT0 =      1 
    DVT1 =      2 
    DVT2 =      0 
    DVT0W =      0 
    DVT1W =      0 
    DVT2W =      0 
    DROUT =    0.5 
    DSUB =    0.1 
    VTH0 = 0.4106 
    EU =   1.67 
    UA =  6e-10 
    UA1 = 4.31e-09 
    UB = 1.2e-18 
    UB1 = 7.61e-18 
    UC =      0 
    UC1 = -5.6e-11 
    U0 =  0.045 
    UTE =   -1.5 
    VOFF =  -0.13 
    VOFFL =      0 
    MINV =   0.05 
    FPROUT =    0.2 
    PDITS =   0.08 
    PDITSD =   0.23 
    PDITSL = 2.3e+06 
    DELTA =   0.01 
    RDSW =    155 
    RDSWMIN =      0 
    RDWMIN =      0 
    RSWMIN =      0 
    RDW =     80 
    RSW =     80 
    PRWG =      0 
    PRWB =      0 
    PRT =      0 
    ETA0 =  0.006 
    ETAB =      0 
    PCLM =   0.02 
    PDIBLC1 =  0.001 
    PDIBLC2 =  0.001 
    PDIBLCB = -0.005 
    PSCBE1 = 8.14e+08 
    PSCBE2 =  1e-07 
    PVAG =  1e-20 
    WR =      1 
    DWG =      0 
    DWB =      0 
    XW =      0 
    XWREF =      0 
    XL = -2e-08 
    XLREF = -2e-08 
    B0 =      0 
    B1 =      0 
    ALPHA0 =  0.074 
    ALPHA1 =  0.005 
    AGIDL = 0.0002 
    BGIDL = 2.1e+09 
    CGIDL = 0.0002 
    PHIN =      0 
    EGIDL =    0.8 
    AIGC =   0.02 
    BIGC = 0.0027 
    CIGC =  0.002 
    AIGSD =   0.02 
    BIGSD = 0.0027 
    CIGSD =  0.002 
    AIGBACC =  0.012 
    BIGBACC = 0.0028 
    CIGBACC =  0.002 
    AIGBINV =  0.014 
    BIGBINV =  0.004 
    CIGBINV =  0.004 
    NIGC =      1 
    NIGBINV =      3 
    NIGBACC =      1 
    NTOX =      1 
    EIGBINV =    1.1 
    PIGCD =      1 
    POXEDGE =      1 
    XRCRG1 =     12 
    TNOIA =    1.5 
    TNOIB =    3.5 
    NTNOI =      1 
    XRCRG2 =      5 
    BETA0 =     30 
    IJTHDFWD =   0.01 
    IJTHSFWD =   0.01 
    IJTHDREV =  0.001 
    IJTHSREV =  0.001 
    XJBVD =      1 
    XJBVS =      1 
    BVD =     10 
    BVS =     10 
    VFB =  -0.55 
    GBMIN =  1e-10 
    RBDB =     15 
    RBPB =      5 
    RBSB =     15 
    RBPS =     15 
    RBPD =     15 
    CGSL = 2.653e-10 
    CGDL = 2.653e-10 
    CKAPPAS =   0.03 
    CKAPPAD =   0.03 
    CF = 1.289e-10 
    CLC =  1e-07 
    CLE =    0.6 
    DWC =  5e-09 
    DLC = 3.75e-09 
    DLCIG = 3.75e-09 
    DWJ =      0 
    VFBCV =     -1 
    ACDE =      1 
    MOIN =     15 
    NOFF =    0.9 
    VOFFCV =   0.02 
    DMCG =      0 
    DMCI =      0 
    DMDG =      0 
    DMCGT =      0 
    XGW =      0 
    XGL =      0 
    RSHG =    0.4 
    NGCON =      1 
    TCJ =  0.001 
    TPB =  0.005 
    TCJSW =  0.001 
    TPBSW =  0.005 
    TCJSWG =  0.001 
    TPBSWG =  0.005 
    SK0 =      0 
    SK1 =      0 
    SK2 =      0 
    SL =  2e-06 
    SW =  2e-06 
    K =      0 
    TNOM =  300.1 
    CGSO = 1.1e-10 
    CGDO = 1.1e-10 
    CGBO = 2.56e-11 
    XPART =      0 
    RSH =      5 
    JSS = 0.0001 
    JSWS =  1e-11 
    JSWGS =  1e-10 
    PBS =      1 
    MJS =    0.5 
    PBSWS =      1 
    MJSWS =   0.33 
    CJS = 0.0005 
    CJSWS =  5e-10 
    NJS =      1 
    PBSWGS =      1 
    MJSWGS =   0.33 
    CJSWGS =  3e-10 
    XTIS =      3 
    JSD = 0.0001 
    JSWD =  1e-11 
    JSWGD =  1e-10 
    PBD =      1 
    MJD =    0.5 
    PBSWD =      1 
    MJSWD =   0.33 
    CJD = 0.0005 
    CJSWD =  5e-10 
    NJD =      1 
    PBSWGD =      1 
    MJSWGD =   0.33 
    CJSWGD =  5e-10 
    XTID =      3 
    LMLT =      1 
    WMLT =      1 
    LINT = 3.75e-09 
    LL =      0 
    LLC =      0 
    LLN =      1 
    LW =      0 
    LWC =      0 
    LWN =      1 
    LWL =      0 
    LWLC =      0 
    LMIN =      0 
    LMAX =      1 
    WINT =  5e-09 
    WL =      0 
    WLC =      0 
    WLN =      1 
    WW =      0 
    WWC =      0 
    WWN =      1 
    WWL =      0 
    WWLC =      0 
    WMIN =      0 
    WMAX =      1 
    NOIA = 6.25e+41 
    NOIB = 3.125e+26 
    NOIC = 8.75e+09 
    EM = 4.1e+07 
    EF =      1 
    AF =      1 
    KF =      0 
    TRS =      0 
    TRD =      0 
 Model file: /opt/cadence/gpdk045/gpdk045_v_6_0/models/hspice/g45p1svt.inc
 Model line:            3
 Model Name: g45p1svt  
 BSIM4 Model (Level 54)
    MOBMOD = 0
    BINUNIT = 1
    PARAMCHK = 1
    CAPMOD = 2
    DIOMOD = 1
    RDSMOD = 0
    TRNQSMOD = 0
    ACNQSMOD = 0
    RBODYMOD = 1
    RGATEMOD = 1
    PERMOD = 1
    GEOMOD = 1
    RGEOMOD = 0
    FNOIMOD = 1
    TNOIMOD = 0
    IGCMOD = 1
    IGBMOD = 1
    STIMOD = 0
    VERSION =      4 
    TOXREF = 1.3e-09 
    TOXE = 1.26e-09 
    TOXP =  1e-09 
    TOXM = 1.26e-09 
    DTOX = 2.6e-10 
    EPSROX =    3.9 
    CDSC =      0 
    CDSCB =      0 
    CDSCD =      0 
    CIT =      0 
    NFACTOR =   2.22 
    XJ = 1.98e-08 
    VSAT = 6.2e+04 
    A0 =      1 
    AGS =  1e-20 
    A1 =      0 
    A2 =      1 
    AT = 3.3e+04 
    KETA = -0.047 
    NSUB =  6e+16 
    NDEP = 2.44e+18 
    NSD =  2e+20 
    NGATE =  2e+20 
    GAMMA1 =      0 
    GAMMA2 =      0 
    VBX =      0 
    VBM =     -3 
    XT = 1.55e-07 
    K1 =    0.4 
    KT1 =  -0.11 
    KT1L =      0 
    KT2 =  0.022 
    K2 =  -0.01 
    K3 =      0 
    K3B =      0 
    LPE0 =      0 
    LPEB =      0 
    DVTP0 =  1e-11 
    DVTP1 =   0.05 
    W0 = 2.5e-06 
    DVT0 =      1 
    DVT1 =      2 
    DVT2 = -0.032 
    DVT0W =      0 
    DVT1W =      0 
    DVT2W =      0 
    DROUT =   0.56 
    DSUB =    0.1 
    VTH0 = -0.3842 
    EU =      1 
    UA =  2e-09 
    UA1 = 4.31e-09 
    UB =  5e-19 
    UB1 = 7.61e-18 
    UC =      0 
    UC1 = -5.6e-11 
    U0 =   0.02 
    UTE =   -1.5 
    VOFF = -0.126 
    VOFFL =      0 
    MINV =   0.05 
    FPROUT =    0.2 
    PDITS =   0.08 
    PDITSD =   0.23 
    PDITSL = 2.3e+06 
    DELTA =   0.01 
    RDSW =    155 
    RDSWMIN =      0 
    RDWMIN =      0 
    RSWMIN =      0 
    RDW =     75 
    RSW =     75 
    PRWG =      0 
    PRWB =      0 
    PRT =      0 
    ETA0 = 0.0055 
    ETAB =      0 
    PCLM =   0.12 
    PDIBLC1 =  0.001 
    PDIBLC2 =  0.001 
    PDIBLCB = 3.4e-08 
    PSCBE1 = 8.14e+08 
    PSCBE2 = 9.58e-07 
    PVAG =  1e-20 
    WR =      1 
    DWG =      0 
    DWB =      0 
    XW =      0 
    XWREF =      0 
    XL = -2e-08 
    XLREF = -2e-08 
    B0 =      0 
    B1 =      0 
    ALPHA0 =  0.074 
    ALPHA1 =  0.005 
    AGIDL = 0.0002 
    BGIDL = 2.1e+09 
    CGIDL = 0.0002 
    PHIN =      0 
    EGIDL =    0.8 
    AIGC = 0.01069 
    BIGC = 0.001261 
    CIGC = 0.0008 
    AIGSD = 0.01069 
    BIGSD = 0.001261 
    CIGSD = 0.0008 
    AIGBACC =  0.012 
    BIGBACC = 0.0028 
    CIGBACC =  0.002 
    AIGBINV =  0.014 
    BIGBINV =  0.004 
    CIGBINV =  0.004 
    NIGC =      1 
    NIGBINV =      3 
    NIGBACC =      1 
    NTOX =      1 
    EIGBINV =    1.1 
    PIGCD =      1 
    POXEDGE =      1 
    XRCRG1 =     12 
    TNOIA =    1.5 
    TNOIB =    3.5 
    NTNOI =      1 
    XRCRG2 =      5 
    BETA0 =     30 
    IJTHDFWD =   0.01 
    IJTHSFWD =   0.01 
    IJTHDREV =  0.001 
    IJTHSREV =  0.001 
    XJBVD =      1 
    XJBVS =      1 
    BVD =     10 
    BVS =     10 
    VFB =   0.55 
    GBMIN =  1e-10 
    RBDB =     15 
    RBPB =      5 
    RBSB =     15 
    RBPS =     15 
    RBPD =     15 
    CGSL = 2.653e-10 
    CGDL = 2.653e-10 
    CKAPPAS =   0.03 
    CKAPPAD =   0.03 
    CF = 1.267e-10 
    CLC =  1e-07 
    CLE =    0.6 
    DWC =  5e-09 
    DLC = 3.75e-09 
    DLCIG = 3.75e-09 
    DWJ =      0 
    VFBCV =     -1 
    ACDE =      1 
    MOIN =     15 
    NOFF =    0.9 
    VOFFCV =   0.02 
    DMCG =      0 
    DMCI =      0 
    DMDG =      0 
    DMCGT =      0 
    XGW =      0 
    XGL =      0 
    RSHG =    0.4 
    NGCON =      1 
    TCJ =  0.001 
    TPB =  0.005 
    TCJSW =  0.001 
    TPBSW =  0.005 
    TCJSWG =  0.001 
    TPBSWG =  0.005 
    SK0 =      0 
    SK1 =      0 
    SK2 =      0 
    SL =  2e-06 
    SW =  2e-06 
    K =      0 
    TNOM =  300.1 
    CGSO = 1.1e-10 
    CGDO = 1.1e-10 
    CGBO = 2.56e-11 
    XPART =      0 
    RSH =      5 
    JSS = 0.0001 
    JSWS =  1e-11 
    JSWGS =  1e-10 
    PBS =      1 
    MJS =    0.5 
    PBSWS =      1 
    MJSWS =   0.33 
    CJS = 0.0005 
    CJSWS =  5e-10 
    NJS =      1 
    PBSWGS =      1 
    MJSWGS =   0.33 
    CJSWGS =  3e-10 
    XTIS =      3 
    JSD = 0.0001 
    JSWD =  1e-11 
    JSWGD =  1e-10 
    PBD =      1 
    MJD =    0.5 
    PBSWD =      1 
    MJSWD =   0.33 
    CJD = 0.0005 
    CJSWD =  5e-10 
    NJD =      1 
    PBSWGD =      1 
    MJSWGD =   0.33 
    CJSWGD =  5e-10 
    XTID =      3 
    LMLT =      1 
    WMLT =      1 
    LINT = 3.75e-09 
    LL =      0 
    LLC =      0 
    LLN =      1 
    LW =      0 
    LWC =      0 
    LWN =      1 
    LWL =      0 
    LWLC =      0 
    LMIN =      0 
    LMAX =      1 
    WINT =  5e-09 
    WL =      0 
    WLC =      0 
    WLN =      1 
    WW =      0 
    WWC =      0 
    WWN =      1 
    WWL =      0 
    WWLC =      0 
    WMIN =      0 
    WMAX =      1 
    NOIA = 6.188e+40 
    NOIB = 1.5e+25 
    NOIC = 8.75e+09 
    EM = 4.1e+07 
    EF =      1 
    AF =      1 
    KF =      0 
    TRS =      0 
    TRD =      0 
  **warning** (mppl.sp:30) Both nodes of element vgnd are connected together; Line ignored.
  **info** (mppl.sp:23) DC voltage reset to initial transient source value in source 0:vpulse. new dc=0.0000D+00
  **warning** (g45n1svt:xi23.mnm2 (mppl.sp:37)) Warning:  Acde = 0.276941 may be too small in BSIM4 model with w=1.2e-07 l=4.5e-08.
 ******  
 * first line is treated as comment

 ****** circuit element summary tnom=  25.000 temp=  25.000 ******


 **** independent sources

     name         node1        node2      dc volt    ac mag    ac phase    type
  vpulse  phi               0                    0.         0.         0.      pulse
             initial value     0.     
             pulsed value.     1.1000 
             delay time...     0.     
             risetime.....    50.0000p
             falltime.....    50.0000p
             width........   200.0000p
             period.......   500.0000p

  vsupply  vdd               0                    1.1000     0.         0.      dc   


 **** mosfets


 **** BSIM4 Model (Level 54)
  
  
                                                                          
 element name        1:mnm2        1:mnm3        1:mnm4        1:mpm0     
 drain               0:net079      1:net14       1:net24       1:net14    
 gate                1:net14       0:b3          0:a3          0:b3       
 source              0:0           1:net24       0:0           0:vdd      
 bulk                0:0           0:0           0:0           0:vdd      
 model               0:g45n1svt    0:g45n1svt    0:g45n1svt    0:g45p1svt 
 w eff             110.0000n     230.0000n     230.0000n     230.0000n    
 l eff              17.5000n      17.5000n      17.5000n      17.5000n    
 rd eff              0.            0.            0.            0.         
 rs eff              0.            0.            0.            0.         
 cdsat              12.7102a      23.4075a      23.4075a      23.4075a    
 cssat              12.7102a      23.4075a      23.4075a      23.4075a    
 capbd             267.8632a     396.0064a     396.0064a     396.0064a    
 capbs             243.9112a     348.1024a     348.1024a     348.1024a    
 temp               25.0000       25.0000       25.0000       25.0000     
 aic                                                                      
 nf                  1.0000        1.0000        1.0000        1.0000     
 min                 0.            0.            0.            0.         
 rbdb               15.0000       15.0000       15.0000       15.0000     
 rbsb               15.0000       15.0000       15.0000       15.0000     
 rbpb                5.0000        5.0000        5.0000        5.0000     
 rbps               15.0000       15.0000       15.0000       15.0000     
 rbpd               15.0000       15.0000       15.0000       15.0000     
 trnqsmod            0.            0.            0.            0.         
 acnqsmod            0.            0.            0.            0.         
 rbodymod            1.0000        1.0000        1.0000        1.0000     
 rgatemod            1.0000        1.0000        1.0000        1.0000     
 geomod              1.0000        1.0000        1.0000        1.0000     
 rgeomod             0.            0.            0.            0.         
 delvto              0.            0.            0.            0.         
 mulu0               1.0000        1.0000        1.0000        1.0000     
 delk1               0.            0.            0.            0.         
 delnfct             0.            0.            0.            0.         
 deltox              0.            0.            0.            0.         
 sa                  0.            0.            0.            0.         
 sb                  0.            0.            0.            0.         
 sd                  0.            0.            0.            0.         
 saeff               0.            0.            0.            0.         
 sbeff               0.            0.            0.            0.         
 m                   1.0000        1.0000        1.0000        1.0000     
 w drawn           120.0000n     240.0000n     240.0000n     240.0000n    
 l drawn            45.0000n      45.0000n      45.0000n      45.0000n    
  
  
                                                                          
 element name        1:mpm1        1:mpm2        2:mnm2        2:mnm3     
 drain               1:net14       0:net079      0:net051      2:net14    
 gate                0:a3          1:net14       2:net14       0:b2       
 source              0:vdd         0:vdd         0:0           2:net24    
 bulk                0:vdd         0:vdd         0:0           0:0        
 model               0:g45p1svt    0:g45p1svt    0:g45n1svt    0:g45n1svt 
 w eff             230.0000n     230.0000n     110.0000n     230.0000n    
 l eff              17.5000n      17.5000n      17.5000n      17.5000n    
 rd eff              0.            0.            0.            0.         
 rs eff              0.            0.            0.            0.         
 cdsat              23.4075a      23.4075a      12.7102a      23.4075a    
 cssat              23.4075a      23.4075a      12.7102a      23.4075a    
 capbd             396.0064a     396.0064a     267.8632a     396.0064a    
 capbs             348.1024a     348.1024a     243.9112a     348.1024a    
 temp               25.0000       25.0000       25.0000       25.0000     
 aic                                                                      
 nf                  1.0000        1.0000        1.0000        1.0000     
 min                 0.            0.            0.            0.         
 rbdb               15.0000       15.0000       15.0000       15.0000     
 rbsb               15.0000       15.0000       15.0000       15.0000     
 rbpb                5.0000        5.0000        5.0000        5.0000     
 rbps               15.0000       15.0000       15.0000       15.0000     
 rbpd               15.0000       15.0000       15.0000       15.0000     
 trnqsmod            0.            0.            0.            0.         
 acnqsmod            0.            0.            0.            0.         
 rbodymod            1.0000        1.0000        1.0000        1.0000     
 rgatemod            1.0000        1.0000        1.0000        1.0000     
 geomod              1.0000        1.0000        1.0000        1.0000     
 rgeomod             0.            0.            0.            0.         
 delvto              0.            0.            0.            0.         
 mulu0               1.0000        1.0000        1.0000        1.0000     
 delk1               0.            0.            0.            0.         
 delnfct             0.            0.            0.            0.         
 deltox              0.            0.            0.            0.         
 sa                  0.            0.            0.            0.         
 sb                  0.            0.            0.            0.         
 sd                  0.            0.            0.            0.         
 saeff               0.            0.            0.            0.         
 sbeff               0.            0.            0.            0.         
 m                   1.0000        1.0000        1.0000        1.0000     
 w drawn           240.0000n     240.0000n     120.0000n     240.0000n    
 l drawn            45.0000n      45.0000n      45.0000n      45.0000n    
  
  
                                                                          
 element name        2:mnm4        2:mpm0        2:mpm1        2:mpm2     
 drain               2:net24       2:net14       2:net14       0:net051   
 gate                0:a0          0:b2          0:a0          2:net14    
 source              0:0           0:vdd         0:vdd         0:vdd      
 bulk                0:0           0:vdd         0:vdd         0:vdd      
 model               0:g45n1svt    0:g45p1svt    0:g45p1svt    0:g45p1svt 
 w eff             230.0000n     230.0000n     230.0000n     230.0000n    
 l eff              17.5000n      17.5000n      17.5000n      17.5000n    
 rd eff              0.            0.            0.            0.         
 rs eff              0.            0.            0.            0.         
 cdsat              23.4075a      23.4075a      23.4075a      23.4075a    
 cssat              23.4075a      23.4075a      23.4075a      23.4075a    
 capbd             396.0064a     396.0064a     396.0064a     396.0064a    
 capbs             348.1024a     348.1024a     348.1024a     348.1024a    
 temp               25.0000       25.0000       25.0000       25.0000     
 aic                                                                      
 nf                  1.0000        1.0000        1.0000        1.0000     
 min                 0.            0.            0.            0.         
 rbdb               15.0000       15.0000       15.0000       15.0000     
 rbsb               15.0000       15.0000       15.0000       15.0000     
 rbpb                5.0000        5.0000        5.0000        5.0000     
 rbps               15.0000       15.0000       15.0000       15.0000     
 rbpd               15.0000       15.0000       15.0000       15.0000     
 trnqsmod            0.            0.            0.            0.         
 acnqsmod            0.            0.            0.            0.         
 rbodymod            1.0000        1.0000        1.0000        1.0000     
 rgatemod            1.0000        1.0000        1.0000        1.0000     
 geomod              1.0000        1.0000        1.0000        1.0000     
 rgeomod             0.            0.            0.            0.         
 delvto              0.            0.            0.            0.         
 mulu0               1.0000        1.0000        1.0000        1.0000     
 delk1               0.            0.            0.            0.         
 delnfct             0.            0.            0.            0.         
 deltox              0.            0.            0.            0.         
 sa                  0.            0.            0.            0.         
 sb                  0.            0.            0.            0.         
 sd                  0.            0.            0.            0.         
 saeff               0.            0.            0.            0.         
 sbeff               0.            0.            0.            0.         
 m                   1.0000        1.0000        1.0000        1.0000     
 w drawn           240.0000n     240.0000n     240.0000n     240.0000n    
 l drawn            45.0000n      45.0000n      45.0000n      45.0000n    
  
  
                                                                          
 element name        3:mnm2        3:mnm3        3:mnm4        3:mpm0     
 drain               0:net050      3:net14       3:net24       3:net14    
 gate                3:net14       0:b2          0:a1          0:b2       
 source              0:0           3:net24       0:0           0:vdd      
 bulk                0:0           0:0           0:0           0:vdd      
 model               0:g45n1svt    0:g45n1svt    0:g45n1svt    0:g45p1svt 
 w eff             110.0000n     230.0000n     230.0000n     230.0000n    
 l eff              17.5000n      17.5000n      17.5000n      17.5000n    
 rd eff              0.            0.            0.            0.         
 rs eff              0.            0.            0.            0.         
 cdsat              12.7102a      23.4075a      23.4075a      23.4075a    
 cssat              12.7102a      23.4075a      23.4075a      23.4075a    
 capbd             267.8632a     396.0064a     396.0064a     396.0064a    
 capbs             243.9112a     348.1024a     348.1024a     348.1024a    
 temp               25.0000       25.0000       25.0000       25.0000     
 aic                                                                      
 nf                  1.0000        1.0000        1.0000        1.0000     
 min                 0.            0.            0.            0.         
 rbdb               15.0000       15.0000       15.0000       15.0000     
 rbsb               15.0000       15.0000       15.0000       15.0000     
 rbpb                5.0000        5.0000        5.0000        5.0000     
 rbps               15.0000       15.0000       15.0000       15.0000     
 rbpd               15.0000       15.0000       15.0000       15.0000     
 trnqsmod            0.            0.            0.            0.         
 acnqsmod            0.            0.            0.            0.         
 rbodymod            1.0000        1.0000        1.0000        1.0000     
 rgatemod            1.0000        1.0000        1.0000        1.0000     
 geomod              1.0000        1.0000        1.0000        1.0000     
 rgeomod             0.            0.            0.            0.         
 delvto              0.            0.            0.            0.         
 mulu0               1.0000        1.0000        1.0000        1.0000     
 delk1               0.            0.            0.            0.         
 delnfct             0.            0.            0.            0.         
 deltox              0.            0.            0.            0.         
 sa                  0.            0.            0.            0.         
 sb                  0.            0.            0.            0.         
 sd                  0.            0.            0.            0.         
 saeff               0.            0.            0.            0.         
 sbeff               0.            0.            0.            0.         
 m                   1.0000        1.0000        1.0000        1.0000     
 w drawn           120.0000n     240.0000n     240.0000n     240.0000n    
 l drawn            45.0000n      45.0000n      45.0000n      45.0000n    
  
  
                                                                          
 element name        3:mpm1        3:mpm2        4:mnm2        4:mnm3     
 drain               3:net14       0:net050      0:net049      4:net14    
 gate                0:a1          3:net14       4:net14       0:b2       
 source              0:vdd         0:vdd         0:0           4:net24    
 bulk                0:vdd         0:vdd         0:0           0:0        
 model               0:g45p1svt    0:g45p1svt    0:g45n1svt    0:g45n1svt 
 w eff             230.0000n     230.0000n     110.0000n     230.0000n    
 l eff              17.5000n      17.5000n      17.5000n      17.5000n    
 rd eff              0.            0.            0.            0.         
 rs eff              0.            0.            0.            0.         
 cdsat              23.4075a      23.4075a      12.7102a      23.4075a    
 cssat              23.4075a      23.4075a      12.7102a      23.4075a    
 capbd             396.0064a     396.0064a     267.8632a     396.0064a    
 capbs             348.1024a     348.1024a     243.9112a     348.1024a    
 temp               25.0000       25.0000       25.0000       25.0000     
 aic                                                                      
 nf                  1.0000        1.0000        1.0000        1.0000     
 min                 0.            0.            0.            0.         
 rbdb               15.0000       15.0000       15.0000       15.0000     
 rbsb               15.0000       15.0000       15.0000       15.0000     
 rbpb                5.0000        5.0000        5.0000        5.0000     
 rbps               15.0000       15.0000       15.0000       15.0000     
 rbpd               15.0000       15.0000       15.0000       15.0000     
 trnqsmod            0.            0.            0.            0.         
 acnqsmod            0.            0.            0.            0.         
 rbodymod            1.0000        1.0000        1.0000        1.0000     
 rgatemod            1.0000        1.0000        1.0000        1.0000     
 geomod              1.0000        1.0000        1.0000        1.0000     
 rgeomod             0.            0.            0.            0.         
 delvto              0.            0.            0.            0.         
 mulu0               1.0000        1.0000        1.0000        1.0000     
 delk1               0.            0.            0.            0.         
 delnfct             0.            0.            0.            0.         
 deltox              0.            0.            0.            0.         
 sa                  0.            0.            0.            0.         
 sb                  0.            0.            0.            0.         
 sd                  0.            0.            0.            0.         
 saeff               0.            0.            0.            0.         
 sbeff               0.            0.            0.            0.         
 m                   1.0000        1.0000        1.0000        1.0000     
 w drawn           240.0000n     240.0000n     120.0000n     240.0000n    
 l drawn            45.0000n      45.0000n      45.0000n      45.0000n    
  
  
                                                                          
 element name        4:mnm4        4:mpm0        4:mpm1        4:mpm2     
 drain               4:net24       4:net14       4:net14       0:net049   
 gate                0:a2          0:b2          0:a2          4:net14    
 source              0:0           0:vdd         0:vdd         0:vdd      
 bulk                0:0           0:vdd         0:vdd         0:vdd      
 model               0:g45n1svt    0:g45p1svt    0:g45p1svt    0:g45p1svt 
 w eff             230.0000n     230.0000n     230.0000n     230.0000n    
 l eff              17.5000n      17.5000n      17.5000n      17.5000n    
 rd eff              0.            0.            0.            0.         
 rs eff              0.            0.            0.            0.         
 cdsat              23.4075a      23.4075a      23.4075a      23.4075a    
 cssat              23.4075a      23.4075a      23.4075a      23.4075a    
 capbd             396.0064a     396.0064a     396.0064a     396.0064a    
 capbs             348.1024a     348.1024a     348.1024a     348.1024a    
 temp               25.0000       25.0000       25.0000       25.0000     
 aic                                                                      
 nf                  1.0000        1.0000        1.0000        1.0000     
 min                 0.            0.            0.            0.         
 rbdb               15.0000       15.0000       15.0000       15.0000     
 rbsb               15.0000       15.0000       15.0000       15.0000     
 rbpb                5.0000        5.0000        5.0000        5.0000     
 rbps               15.0000       15.0000       15.0000       15.0000     
 rbpd               15.0000       15.0000       15.0000       15.0000     
 trnqsmod            0.            0.            0.            0.         
 acnqsmod            0.            0.            0.            0.         
 rbodymod            1.0000        1.0000        1.0000        1.0000     
 rgatemod            1.0000        1.0000        1.0000        1.0000     
 geomod              1.0000        1.0000        1.0000        1.0000     
 rgeomod             0.            0.            0.            0.         
 delvto              0.            0.            0.            0.         
 mulu0               1.0000        1.0000        1.0000        1.0000     
 delk1               0.            0.            0.            0.         
 delnfct             0.            0.            0.            0.         
 deltox              0.            0.            0.            0.         
 sa                  0.            0.            0.            0.         
 sb                  0.            0.            0.            0.         
 sd                  0.            0.            0.            0.         
 saeff               0.            0.            0.            0.         
 sbeff               0.            0.            0.            0.         
 m                   1.0000        1.0000        1.0000        1.0000     
 w drawn           240.0000n     240.0000n     240.0000n     240.0000n    
 l drawn            45.0000n      45.0000n      45.0000n      45.0000n    
  
  
                                                                          
 element name        5:mnm2        5:mnm3        5:mnm4        5:mpm0     
 drain               0:net48       5:net14       5:net24       5:net14    
 gate                5:net14       0:b1          0:a0          0:b1       
 source              0:0           5:net24       0:0           0:vdd      
 bulk                0:0           0:0           0:0           0:vdd      
 model               0:g45n1svt    0:g45n1svt    0:g45n1svt    0:g45p1svt 
 w eff             110.0000n     230.0000n     230.0000n     230.0000n    
 l eff              17.5000n      17.5000n      17.5000n      17.5000n    
 rd eff              0.            0.            0.            0.         
 rs eff              0.            0.            0.            0.         
 cdsat              12.7102a      23.4075a      23.4075a      23.4075a    
 cssat              12.7102a      23.4075a      23.4075a      23.4075a    
 capbd             267.8632a     396.0064a     396.0064a     396.0064a    
 capbs             243.9112a     348.1024a     348.1024a     348.1024a    
 temp               25.0000       25.0000       25.0000       25.0000     
 aic                                                                      
 nf                  1.0000        1.0000        1.0000        1.0000     
 min                 0.            0.            0.            0.         
 rbdb               15.0000       15.0000       15.0000       15.0000     
 rbsb               15.0000       15.0000       15.0000       15.0000     
 rbpb                5.0000        5.0000        5.0000        5.0000     
 rbps               15.0000       15.0000       15.0000       15.0000     
 rbpd               15.0000       15.0000       15.0000       15.0000     
 trnqsmod            0.            0.            0.            0.         
 acnqsmod            0.            0.            0.            0.         
 rbodymod            1.0000        1.0000        1.0000        1.0000     
 rgatemod            1.0000        1.0000        1.0000        1.0000     
 geomod              1.0000        1.0000        1.0000        1.0000     
 rgeomod             0.            0.            0.            0.         
 delvto              0.            0.            0.            0.         
 mulu0               1.0000        1.0000        1.0000        1.0000     
 delk1               0.            0.            0.            0.         
 delnfct             0.            0.            0.            0.         
 deltox              0.            0.            0.            0.         
 sa                  0.            0.            0.            0.         
 sb                  0.            0.            0.            0.         
 sd                  0.            0.            0.            0.         
 saeff               0.            0.            0.            0.         
 sbeff               0.            0.            0.            0.         
 m                   1.0000        1.0000        1.0000        1.0000     
 w drawn           120.0000n     240.0000n     240.0000n     240.0000n    
 l drawn            45.0000n      45.0000n      45.0000n      45.0000n    
  
  
                                                                          
 element name        5:mpm1        5:mpm2        6:mnm2        6:mnm3     
 drain               5:net14       0:net48       0:net24       6:net14    
 gate                0:a0          5:net14       6:net14       0:b1       
 source              0:vdd         0:vdd         0:0           6:net24    
 bulk                0:vdd         0:vdd         0:0           0:0        
 model               0:g45p1svt    0:g45p1svt    0:g45n1svt    0:g45n1svt 
 w eff             230.0000n     230.0000n     110.0000n     230.0000n    
 l eff              17.5000n      17.5000n      17.5000n      17.5000n    
 rd eff              0.            0.            0.            0.         
 rs eff              0.            0.            0.            0.         
 cdsat              23.4075a      23.4075a      12.7102a      23.4075a    
 cssat              23.4075a      23.4075a      12.7102a      23.4075a    
 capbd             396.0064a     396.0064a     267.8632a     396.0064a    
 capbs             348.1024a     348.1024a     243.9112a     348.1024a    
 temp               25.0000       25.0000       25.0000       25.0000     
 aic                                                                      
 nf                  1.0000        1.0000        1.0000        1.0000     
 min                 0.            0.            0.            0.         
 rbdb               15.0000       15.0000       15.0000       15.0000     
 rbsb               15.0000       15.0000       15.0000       15.0000     
 rbpb                5.0000        5.0000        5.0000        5.0000     
 rbps               15.0000       15.0000       15.0000       15.0000     
 rbpd               15.0000       15.0000       15.0000       15.0000     
 trnqsmod            0.            0.            0.            0.         
 acnqsmod            0.            0.            0.            0.         
 rbodymod            1.0000        1.0000        1.0000        1.0000     
 rgatemod            1.0000        1.0000        1.0000        1.0000     
 geomod              1.0000        1.0000        1.0000        1.0000     
 rgeomod             0.            0.            0.            0.         
 delvto              0.            0.            0.            0.         
 mulu0               1.0000        1.0000        1.0000        1.0000     
 delk1               0.            0.            0.            0.         
 delnfct             0.            0.            0.            0.         
 deltox              0.            0.            0.            0.         
 sa                  0.            0.            0.            0.         
 sb                  0.            0.            0.            0.         
 sd                  0.            0.            0.            0.         
 saeff               0.            0.            0.            0.         
 sbeff               0.            0.            0.            0.         
 m                   1.0000        1.0000        1.0000        1.0000     
 w drawn           240.0000n     240.0000n     120.0000n     240.0000n    
 l drawn            45.0000n      45.0000n      45.0000n      45.0000n    
  
  
                                                                          
 element name        6:mnm4        6:mpm0        6:mpm1        6:mpm2     
 drain               6:net24       6:net14       6:net14       0:net24    
 gate                0:a2          0:b1          0:a2          6:net14    
 source              0:0           0:vdd         0:vdd         0:vdd      
 bulk                0:0           0:vdd         0:vdd         0:vdd      
 model               0:g45n1svt    0:g45p1svt    0:g45p1svt    0:g45p1svt 
 w eff             230.0000n     230.0000n     230.0000n     230.0000n    
 l eff              17.5000n      17.5000n      17.5000n      17.5000n    
 rd eff              0.            0.            0.            0.         
 rs eff              0.            0.            0.            0.         
 cdsat              23.4075a      23.4075a      23.4075a      23.4075a    
 cssat              23.4075a      23.4075a      23.4075a      23.4075a    
 capbd             396.0064a     396.0064a     396.0064a     396.0064a    
 capbs             348.1024a     348.1024a     348.1024a     348.1024a    
 temp               25.0000       25.0000       25.0000       25.0000     
 aic                                                                      
 nf                  1.0000        1.0000        1.0000        1.0000     
 min                 0.            0.            0.            0.         
 rbdb               15.0000       15.0000       15.0000       15.0000     
 rbsb               15.0000       15.0000       15.0000       15.0000     
 rbpb                5.0000        5.0000        5.0000        5.0000     
 rbps               15.0000       15.0000       15.0000       15.0000     
 rbpd               15.0000       15.0000       15.0000       15.0000     
 trnqsmod            0.            0.            0.            0.         
 acnqsmod            0.            0.            0.            0.         
 rbodymod            1.0000        1.0000        1.0000        1.0000     
 rgatemod            1.0000        1.0000        1.0000        1.0000     
 geomod              1.0000        1.0000        1.0000        1.0000     
 rgeomod             0.            0.            0.            0.         
 delvto              0.            0.            0.            0.         
 mulu0               1.0000        1.0000        1.0000        1.0000     
 delk1               0.            0.            0.            0.         
 delnfct             0.            0.            0.            0.         
 deltox              0.            0.            0.            0.         
 sa                  0.            0.            0.            0.         
 sb                  0.            0.            0.            0.         
 sd                  0.            0.            0.            0.         
 saeff               0.            0.            0.            0.         
 sbeff               0.            0.            0.            0.         
 m                   1.0000        1.0000        1.0000        1.0000     
 w drawn           240.0000n     240.0000n     240.0000n     240.0000n    
 l drawn            45.0000n      45.0000n      45.0000n      45.0000n    
  
  
                                                                          
 element name        7:mnm2        7:mnm3        7:mnm4        7:mpm0     
 drain               0:net62       7:net14       7:net24       7:net14    
 gate                7:net14       0:b1          0:a1          0:b1       
 source              0:0           7:net24       0:0           0:vdd      
 bulk                0:0           0:0           0:0           0:vdd      
 model               0:g45n1svt    0:g45n1svt    0:g45n1svt    0:g45p1svt 
 w eff             110.0000n     230.0000n     230.0000n     230.0000n    
 l eff              17.5000n      17.5000n      17.5000n      17.5000n    
 rd eff              0.            0.            0.            0.         
 rs eff              0.            0.            0.            0.         
 cdsat              12.7102a      23.4075a      23.4075a      23.4075a    
 cssat              12.7102a      23.4075a      23.4075a      23.4075a    
 capbd             267.8632a     396.0064a     396.0064a     396.0064a    
 capbs             243.9112a     348.1024a     348.1024a     348.1024a    
 temp               25.0000       25.0000       25.0000       25.0000     
 aic                                                                      
 nf                  1.0000        1.0000        1.0000        1.0000     
 min                 0.            0.            0.            0.         
 rbdb               15.0000       15.0000       15.0000       15.0000     
 rbsb               15.0000       15.0000       15.0000       15.0000     
 rbpb                5.0000        5.0000        5.0000        5.0000     
 rbps               15.0000       15.0000       15.0000       15.0000     
 rbpd               15.0000       15.0000       15.0000       15.0000     
 trnqsmod            0.            0.            0.            0.         
 acnqsmod            0.            0.            0.            0.         
 rbodymod            1.0000        1.0000        1.0000        1.0000     
 rgatemod            1.0000        1.0000        1.0000        1.0000     
 geomod              1.0000        1.0000        1.0000        1.0000     
 rgeomod             0.            0.            0.            0.         
 delvto              0.            0.            0.            0.         
 mulu0               1.0000        1.0000        1.0000        1.0000     
 delk1               0.            0.            0.            0.         
 delnfct             0.            0.            0.            0.         
 deltox              0.            0.            0.            0.         
 sa                  0.            0.            0.            0.         
 sb                  0.            0.            0.            0.         
 sd                  0.            0.            0.            0.         
 saeff               0.            0.            0.            0.         
 sbeff               0.            0.            0.            0.         
 m                   1.0000        1.0000        1.0000        1.0000     
 w drawn           120.0000n     240.0000n     240.0000n     240.0000n    
 l drawn            45.0000n      45.0000n      45.0000n      45.0000n    
  
  
                                                                          
 element name        7:mpm1        7:mpm2        8:mnm2        8:mnm3     
 drain               7:net14       0:net62       0:net30       8:net14    
 gate                0:a1          7:net14       8:net14       0:b0       
 source              0:vdd         0:vdd         0:0           8:net24    
 bulk                0:vdd         0:vdd         0:0           0:0        
 model               0:g45p1svt    0:g45p1svt    0:g45n1svt    0:g45n1svt 
 w eff             230.0000n     230.0000n     110.0000n     230.0000n    
 l eff              17.5000n      17.5000n      17.5000n      17.5000n    
 rd eff              0.            0.            0.            0.         
 rs eff              0.            0.            0.            0.         
 cdsat              23.4075a      23.4075a      12.7102a      23.4075a    
 cssat              23.4075a      23.4075a      12.7102a      23.4075a    
 capbd             396.0064a     396.0064a     267.8632a     396.0064a    
 capbs             348.1024a     348.1024a     243.9112a     348.1024a    
 temp               25.0000       25.0000       25.0000       25.0000     
 aic                                                                      
 nf                  1.0000        1.0000        1.0000        1.0000     
 min                 0.            0.            0.            0.         
 rbdb               15.0000       15.0000       15.0000       15.0000     
 rbsb               15.0000       15.0000       15.0000       15.0000     
 rbpb                5.0000        5.0000        5.0000        5.0000     
 rbps               15.0000       15.0000       15.0000       15.0000     
 rbpd               15.0000       15.0000       15.0000       15.0000     
 trnqsmod            0.            0.            0.            0.         
 acnqsmod            0.            0.            0.            0.         
 rbodymod            1.0000        1.0000        1.0000        1.0000     
 rgatemod            1.0000        1.0000        1.0000        1.0000     
 geomod              1.0000        1.0000        1.0000        1.0000     
 rgeomod             0.            0.            0.            0.         
 delvto              0.            0.            0.            0.         
 mulu0               1.0000        1.0000        1.0000        1.0000     
 delk1               0.            0.            0.            0.         
 delnfct             0.            0.            0.            0.         
 deltox              0.            0.            0.            0.         
 sa                  0.            0.            0.            0.         
 sb                  0.            0.            0.            0.         
 sd                  0.            0.            0.            0.         
 saeff               0.            0.            0.            0.         
 sbeff               0.            0.            0.            0.         
 m                   1.0000        1.0000        1.0000        1.0000     
 w drawn           240.0000n     240.0000n     120.0000n     240.0000n    
 l drawn            45.0000n      45.0000n      45.0000n      45.0000n    
  
  
                                                                          
 element name        8:mnm4        8:mpm0        8:mpm1        8:mpm2     
 drain               8:net24       8:net14       8:net14       0:net30    
 gate                0:a2          0:b0          0:a2          8:net14    
 source              0:0           0:vdd         0:vdd         0:vdd      
 bulk                0:0           0:vdd         0:vdd         0:vdd      
 model               0:g45n1svt    0:g45p1svt    0:g45p1svt    0:g45p1svt 
 w eff             230.0000n     230.0000n     230.0000n     230.0000n    
 l eff              17.5000n      17.5000n      17.5000n      17.5000n    
 rd eff              0.            0.            0.            0.         
 rs eff              0.            0.            0.            0.         
 cdsat              23.4075a      23.4075a      23.4075a      23.4075a    
 cssat              23.4075a      23.4075a      23.4075a      23.4075a    
 capbd             396.0064a     396.0064a     396.0064a     396.0064a    
 capbs             348.1024a     348.1024a     348.1024a     348.1024a    
 temp               25.0000       25.0000       25.0000       25.0000     
 aic                                                                      
 nf                  1.0000        1.0000        1.0000        1.0000     
 min                 0.            0.            0.            0.         
 rbdb               15.0000       15.0000       15.0000       15.0000     
 rbsb               15.0000       15.0000       15.0000       15.0000     
 rbpb                5.0000        5.0000        5.0000        5.0000     
 rbps               15.0000       15.0000       15.0000       15.0000     
 rbpd               15.0000       15.0000       15.0000       15.0000     
 trnqsmod            0.            0.            0.            0.         
 acnqsmod            0.            0.            0.            0.         
 rbodymod            1.0000        1.0000        1.0000        1.0000     
 rgatemod            1.0000        1.0000        1.0000        1.0000     
 geomod              1.0000        1.0000        1.0000        1.0000     
 rgeomod             0.            0.            0.            0.         
 delvto              0.            0.            0.            0.         
 mulu0               1.0000        1.0000        1.0000        1.0000     
 delk1               0.            0.            0.            0.         
 delnfct             0.            0.            0.            0.         
 deltox              0.            0.            0.            0.         
 sa                  0.            0.            0.            0.         
 sb                  0.            0.            0.            0.         
 sd                  0.            0.            0.            0.         
 saeff               0.            0.            0.            0.         
 sbeff               0.            0.            0.            0.         
 m                   1.0000        1.0000        1.0000        1.0000     
 w drawn           240.0000n     240.0000n     240.0000n     240.0000n    
 l drawn            45.0000n      45.0000n      45.0000n      45.0000n    
  
  
                                                                          
 element name        9:mnm2        9:mnm3        9:mnm4        9:mpm0     
 drain               0:net47       9:net14       9:net24       9:net14    
 gate                9:net14       0:b0          0:a1          0:b0       
 source              0:0           9:net24       0:0           0:vdd      
 bulk                0:0           0:0           0:0           0:vdd      
 model               0:g45n1svt    0:g45n1svt    0:g45n1svt    0:g45p1svt 
 w eff             110.0000n     230.0000n     230.0000n     230.0000n    
 l eff              17.5000n      17.5000n      17.5000n      17.5000n    
 rd eff              0.            0.            0.            0.         
 rs eff              0.            0.            0.            0.         
 cdsat              12.7102a      23.4075a      23.4075a      23.4075a    
 cssat              12.7102a      23.4075a      23.4075a      23.4075a    
 capbd             267.8632a     396.0064a     396.0064a     396.0064a    
 capbs             243.9112a     348.1024a     348.1024a     348.1024a    
 temp               25.0000       25.0000       25.0000       25.0000     
 aic                                                                      
 nf                  1.0000        1.0000        1.0000        1.0000     
 min                 0.            0.            0.            0.         
 rbdb               15.0000       15.0000       15.0000       15.0000     
 rbsb               15.0000       15.0000       15.0000       15.0000     
 rbpb                5.0000        5.0000        5.0000        5.0000     
 rbps               15.0000       15.0000       15.0000       15.0000     
 rbpd               15.0000       15.0000       15.0000       15.0000     
 trnqsmod            0.            0.            0.            0.         
 acnqsmod            0.            0.            0.            0.         
 rbodymod            1.0000        1.0000        1.0000        1.0000     
 rgatemod            1.0000        1.0000        1.0000        1.0000     
 geomod              1.0000        1.0000        1.0000        1.0000     
 rgeomod             0.            0.            0.            0.         
 delvto              0.            0.            0.            0.         
 mulu0               1.0000        1.0000        1.0000        1.0000     
 delk1               0.            0.            0.            0.         
 delnfct             0.            0.            0.            0.         
 deltox              0.            0.            0.            0.         
 sa                  0.            0.            0.            0.         
 sb                  0.            0.            0.            0.         
 sd                  0.            0.            0.            0.         
 saeff               0.            0.            0.            0.         
 sbeff               0.            0.            0.            0.         
 m                   1.0000        1.0000        1.0000        1.0000     
 w drawn           120.0000n     240.0000n     240.0000n     240.0000n    
 l drawn            45.0000n      45.0000n      45.0000n      45.0000n    
  
  
                                                                          
 element name        9:mpm1        9:mpm2       10:mnm2       10:mnm3     
 drain               9:net14       0:net47       0:net0139    10:net14    
 gate                0:a1          9:net14      10:net14       0:b0       
 source              0:vdd         0:vdd         0:0          10:net24    
 bulk                0:vdd         0:vdd         0:0           0:0        
 model               0:g45p1svt    0:g45p1svt    0:g45n1svt    0:g45n1svt 
 w eff             230.0000n     230.0000n     110.0000n     230.0000n    
 l eff              17.5000n      17.5000n      17.5000n      17.5000n    
 rd eff              0.            0.            0.            0.         
 rs eff              0.            0.            0.            0.         
 cdsat              23.4075a      23.4075a      12.7102a      23.4075a    
 cssat              23.4075a      23.4075a      12.7102a      23.4075a    
 capbd             396.0064a     396.0064a     267.8632a     396.0064a    
 capbs             348.1024a     348.1024a     243.9112a     348.1024a    
 temp               25.0000       25.0000       25.0000       25.0000     
 aic                                                                      
 nf                  1.0000        1.0000        1.0000        1.0000     
 min                 0.            0.            0.            0.         
 rbdb               15.0000       15.0000       15.0000       15.0000     
 rbsb               15.0000       15.0000       15.0000       15.0000     
 rbpb                5.0000        5.0000        5.0000        5.0000     
 rbps               15.0000       15.0000       15.0000       15.0000     
 rbpd               15.0000       15.0000       15.0000       15.0000     
 trnqsmod            0.            0.            0.            0.         
 acnqsmod            0.            0.            0.            0.         
 rbodymod            1.0000        1.0000        1.0000        1.0000     
 rgatemod            1.0000        1.0000        1.0000        1.0000     
 geomod              1.0000        1.0000        1.0000        1.0000     
 rgeomod             0.            0.            0.            0.         
 delvto              0.            0.            0.            0.         
 mulu0               1.0000        1.0000        1.0000        1.0000     
 delk1               0.            0.            0.            0.         
 delnfct             0.            0.            0.            0.         
 deltox              0.            0.            0.            0.         
 sa                  0.            0.            0.            0.         
 sb                  0.            0.            0.            0.         
 sd                  0.            0.            0.            0.         
 saeff               0.            0.            0.            0.         
 sbeff               0.            0.            0.            0.         
 m                   1.0000        1.0000        1.0000        1.0000     
 w drawn           240.0000n     240.0000n     120.0000n     240.0000n    
 l drawn            45.0000n      45.0000n      45.0000n      45.0000n    
  
  
                                                                          
 element name       10:mnm4       10:mpm0       10:mpm1       10:mpm2     
 drain              10:net24      10:net14      10:net14       0:net0139  
 gate                0:a0          0:b0          0:a0         10:net14    
 source              0:0           0:vdd         0:vdd         0:vdd      
 bulk                0:0           0:vdd         0:vdd         0:vdd      
 model               0:g45n1svt    0:g45p1svt    0:g45p1svt    0:g45p1svt 
 w eff             230.0000n     230.0000n     230.0000n     230.0000n    
 l eff              17.5000n      17.5000n      17.5000n      17.5000n    
 rd eff              0.            0.            0.            0.         
 rs eff              0.            0.            0.            0.         
 cdsat              23.4075a      23.4075a      23.4075a      23.4075a    
 cssat              23.4075a      23.4075a      23.4075a      23.4075a    
 capbd             396.0064a     396.0064a     396.0064a     396.0064a    
 capbs             348.1024a     348.1024a     348.1024a     348.1024a    
 temp               25.0000       25.0000       25.0000       25.0000     
 aic                                                                      
 nf                  1.0000        1.0000        1.0000        1.0000     
 min                 0.            0.            0.            0.         
 rbdb               15.0000       15.0000       15.0000       15.0000     
 rbsb               15.0000       15.0000       15.0000       15.0000     
 rbpb                5.0000        5.0000        5.0000        5.0000     
 rbps               15.0000       15.0000       15.0000       15.0000     
 rbpd               15.0000       15.0000       15.0000       15.0000     
 trnqsmod            0.            0.            0.            0.         
 acnqsmod            0.            0.            0.            0.         
 rbodymod            1.0000        1.0000        1.0000        1.0000     
 rgatemod            1.0000        1.0000        1.0000        1.0000     
 geomod              1.0000        1.0000        1.0000        1.0000     
 rgeomod             0.            0.            0.            0.         
 delvto              0.            0.            0.            0.         
 mulu0               1.0000        1.0000        1.0000        1.0000     
 delk1               0.            0.            0.            0.         
 delnfct             0.            0.            0.            0.         
 deltox              0.            0.            0.            0.         
 sa                  0.            0.            0.            0.         
 sb                  0.            0.            0.            0.         
 sd                  0.            0.            0.            0.         
 saeff               0.            0.            0.            0.         
 sbeff               0.            0.            0.            0.         
 m                   1.0000        1.0000        1.0000        1.0000     
 w drawn           240.0000n     240.0000n     240.0000n     240.0000n    
 l drawn            45.0000n      45.0000n      45.0000n      45.0000n    
  
  
                                                                          
 element name       11:mnm1       11:mnm0       11:mpm1       11:mpm0     
 drain              11:net16       0:net081      0:net081      0:net081   
 gate                0:a2          0:b3          0:b3          0:a2       
 source              0:0          11:net16       0:vdd         0:vdd      
 bulk                0:0           0:0           0:vdd         0:vdd      
 model               0:g45n1svt    0:g45n1svt    0:g45p1svt    0:g45p1svt 
 w eff             230.0000n     230.0000n     230.0000n     230.0000n    
 l eff              17.5000n      17.5000n      17.5000n      17.5000n    
 rd eff              0.            0.            0.            0.         
 rs eff              0.            0.            0.            0.         
 cdsat              23.4075a      23.4075a      23.4075a      23.4075a    
 cssat              23.4075a      23.4075a      23.4075a      23.4075a    
 capbd             396.0064a     396.0064a     396.0064a     396.0064a    
 capbs             348.1024a     348.1024a     348.1024a     348.1024a    
 temp               25.0000       25.0000       25.0000       25.0000     
 aic                                                                      
 nf                  1.0000        1.0000        1.0000        1.0000     
 min                 0.            0.            0.            0.         
 rbdb               15.0000       15.0000       15.0000       15.0000     
 rbsb               15.0000       15.0000       15.0000       15.0000     
 rbpb                5.0000        5.0000        5.0000        5.0000     
 rbps               15.0000       15.0000       15.0000       15.0000     
 rbpd               15.0000       15.0000       15.0000       15.0000     
 trnqsmod            0.            0.            0.            0.         
 acnqsmod            0.            0.            0.            0.         
 rbodymod            1.0000        1.0000        1.0000        1.0000     
 rgatemod            1.0000        1.0000        1.0000        1.0000     
 geomod              1.0000        1.0000        1.0000        1.0000     
 rgeomod             0.            0.            0.            0.         
 delvto              0.            0.            0.            0.         
 mulu0               1.0000        1.0000        1.0000        1.0000     
 delk1               0.            0.            0.            0.         
 delnfct             0.            0.            0.            0.         
 deltox              0.            0.            0.            0.         
 sa                  0.            0.            0.            0.         
 sb                  0.            0.            0.            0.         
 sd                  0.            0.            0.            0.         
 saeff               0.            0.            0.            0.         
 sbeff               0.            0.            0.            0.         
 m                   1.0000        1.0000        1.0000        1.0000     
 w drawn           240.0000n     240.0000n     240.0000n     240.0000n    
 l drawn            45.0000n      45.0000n      45.0000n      45.0000n    
  
  
                                                                          
 element name       12:mnm1       12:mnm0       12:mpm1       12:mpm0     
 drain              12:net16       0:net082      0:net082      0:net082   
 gate                0:a1          0:b3          0:b3          0:a1       
 source              0:0          12:net16       0:vdd         0:vdd      
 bulk                0:0           0:0           0:vdd         0:vdd      
 model               0:g45n1svt    0:g45n1svt    0:g45p1svt    0:g45p1svt 
 w eff             230.0000n     230.0000n     230.0000n     230.0000n    
 l eff              17.5000n      17.5000n      17.5000n      17.5000n    
[...]
 158:net12        158:mpm3:g       158:mnm0:g       194:mnm0:d       194:mpm0:d       
 158:net13        158:mpm2:d       158:mpm1:g       158:mnm3:g       158:mnm0:d       
 158:net25        158:mnm3:d       158:mnm1:s                                         
 158:net26        158:mpm3:s       158:mpm1:d                                         
 158:net27        158:mnm2:d       158:mnm0:s                                         
 158:net28        158:mpm2:s       158:mpm0:d                                         
 160:net16        160:mnm1:d       160:mnm0:s                                         
 161:net12        161:mpm3:g       161:mnm0:g       195:mnm0:d       195:mpm0:d       
 161:net13        161:mpm2:d       161:mpm1:g       161:mnm3:g       161:mnm0:d       
 161:net25        161:mnm3:d       161:mnm1:s                                         
 161:net26        161:mpm3:s       161:mpm1:d                                         
 161:net27        161:mnm2:d       161:mnm0:s                                         
 161:net28        161:mpm2:s       161:mpm0:d                                         
 163:net16        163:mnm1:d       163:mnm0:s                                         
 164:net12        164:mpm3:g       164:mnm0:g       196:mnm0:d       196:mpm0:d       
 164:net13        164:mpm2:d       164:mpm1:g       164:mnm3:g       164:mnm0:d       
 164:net25        164:mnm3:d       164:mnm1:s                                         
 164:net26        164:mpm3:s       164:mpm1:d                                         
 164:net27        164:mnm2:d       164:mnm0:s                                         
 164:net28        164:mpm2:s       164:mpm0:d                                         
 166:net16        166:mnm1:d       166:mnm0:s                                         
 167:net12        167:mpm3:g       167:mnm0:g       197:mnm0:d       197:mpm0:d       
 167:net13        167:mpm2:d       167:mpm1:g       167:mnm3:g       167:mnm0:d       
 167:net25        167:mnm3:d       167:mnm1:s                                         
 167:net26        167:mpm3:s       167:mpm1:d                                         
 167:net27        167:mnm2:d       167:mnm0:s                                         
 167:net28        167:mpm2:s       167:mpm0:d                                         
 169:net16        169:mnm1:d       169:mnm0:s                                         
 170:net12        170:mpm3:g       170:mnm0:g       198:mnm0:d       198:mpm0:d       
 170:net13        170:mpm2:d       170:mpm1:g       170:mnm3:g       170:mnm0:d       
 170:net25        170:mnm3:d       170:mnm1:s                                         
 170:net26        170:mpm3:s       170:mpm1:d                                         
 170:net27        170:mnm2:d       170:mnm0:s                                         
 170:net28        170:mpm2:s       170:mpm0:d                                         
 172:net16        172:mnm1:d       172:mnm0:s                                         
 173:net12        173:mpm3:g       173:mnm0:g       199:mnm0:d       199:mpm0:d       
 173:net13        173:mpm2:d       173:mpm1:g       173:mnm3:g       173:mnm0:d       
 173:net25        173:mnm3:d       173:mnm1:s                                         
 173:net26        173:mpm3:s       173:mpm1:d                                         
 173:net27        173:mnm2:d       173:mnm0:s                                         
 173:net28        173:mpm2:s       173:mpm0:d                                         
 178:net16        178:mnm1:d       178:mnm0:s                                         
 179:net12        179:mpm3:g       179:mnm0:g       200:mnm0:d       200:mpm0:d       
 179:net13        179:mpm2:d       179:mpm1:g       179:mnm3:g       179:mnm0:d       
 179:net25        179:mnm3:d       179:mnm1:s                                         
 179:net26        179:mpm3:s       179:mpm1:d                                         
 179:net27        179:mnm2:d       179:mnm0:s                                         
 179:net28        179:mpm2:s       179:mpm0:d                                         
 181:net16        181:mnm1:d       181:mnm0:s                                         
 182:net12        182:mpm3:g       182:mnm0:g       201:mnm0:d       201:mpm0:d       
 182:net13        182:mpm2:d       182:mpm1:g       182:mnm3:g       182:mnm0:d       
 182:net25        182:mnm3:d       182:mnm1:s                                         
 182:net26        182:mpm3:s       182:mpm1:d                                         
 182:net27        182:mnm2:d       182:mnm0:s                                         
 182:net28        182:mpm2:s       182:mpm0:d                                         
 184:net16        184:mnm1:d       184:mnm0:s                                         
 185:net12        185:mpm3:g       185:mnm0:g       202:mnm0:d       202:mpm0:d       
 185:net13        185:mpm2:d       185:mpm1:g       185:mnm3:g       185:mnm0:d       
 185:net25        185:mnm3:d       185:mnm1:s                                         
 185:net26        185:mpm3:s       185:mpm1:d                                         
 185:net27        185:mnm2:d       185:mnm0:s                                         
 185:net28        185:mpm2:s       185:mpm0:d                                         
 187:net16        187:mnm1:d       187:mnm0:s                                         
 188:net12        188:mpm3:g       188:mnm0:g       203:mnm0:d       203:mpm0:d       
 188:net13        188:mpm2:d       188:mpm1:g       188:mnm3:g       188:mnm0:d       
 188:net25        188:mnm3:d       188:mnm1:s                                         
 188:net26        188:mpm3:s       188:mpm1:d                                         
 188:net27        188:mnm2:d       188:mnm0:s                                         
 188:net28        188:mpm2:s       188:mpm0:d                                         
 190:net16        190:mnm1:d       190:mnm0:s                                         
 191:net12        191:mpm3:g       191:mnm0:g       204:mnm0:d       204:mpm0:d       
 191:net13        191:mpm2:d       191:mpm1:g       191:mnm3:g       191:mnm0:d       
 191:net25        191:mnm3:d       191:mnm1:s                                         
 191:net26        191:mpm3:s       191:mpm1:d                                         
 191:net27        191:mnm2:d       191:mnm0:s                                         
 191:net28        191:mpm2:s       191:mpm0:d                                         
 **info** set option symb=1 internally to help for convergence.
 *****************************************************************
 ******  option summary
 ******
 runlvl  = 3         bypass  = 2.0000    
  Opening plot unit= 15
 file=mppl.pa0


 **info** although this circuit has failed to converge
 to gmindc=   1.000E-12, it did converge to a gmindc=   5.435E-08

 no convergence with standard algorithm,  trying damped pseudo-transient

  *** pseudo tran succeeded *** 
 ******  
 * first line is treated as comment

 ****** operating point information tnom=  25.000 temp=  25.000 ******
 ****** operating point status is voltage   simulation time is     0.     
      node    =voltage        node    =voltage        node    =voltage

 +  0:a0      =   0.        0:a1      =   0.        0:a2      =   0.     
 +  0:a3      =   0.        0:b0      =   0.        0:b1      =   0.     
 +  0:b2      =   0.        0:b3      =   0.        0:net0103 =   3.6545m
 +  0:net0104 =   3.6549m   0:net0107 =  54.7139u   0:net0110 =   3.6654m
 +  0:net0111 =   3.6582m   0:net0112 =   3.6582m   0:net0113 =   3.6658m
 +  0:net0115 =   3.6658m   0:net0117 =   3.6660m   0:net0136 =   3.6658m
 +  0:net0137 = 149.2654u   0:net0138 = 149.2749u   0:net0139 =  58.5226u
 +  0:net0157 =   3.6654m   0:net0159 =   3.6660m   0:net0161 =   3.6658m
 +  0:net049  =  58.5226u   0:net050  =  58.5226u   0:net051  =  68.7433u
 +  0:net052  =   1.1000    0:net053  =  58.5226u   0:net054  = 122.6741u
 +  0:net055  = 122.3976u   0:net072  = 115.5418u   0:net073  =   1.1000 
 +  0:net076  = 152.4395u   0:net078  = 152.8485u   0:net079  =  58.5226u
 +  0:net081  =   1.1000    0:net082  =   1.1000    0:net083  =   1.1000 
 +  0:net088  = 123.2130u   0:net090  = 122.4522u   0:net091  = 122.6740u
 +  0:net092  =  68.7434u   0:net24   =  69.2984u   0:net30   =  61.7476u
 +  0:net39   =   1.1000    0:net42   =   1.1000    0:net45   =  68.7433u
 +  0:net47   =  62.1624u   0:net48   =  68.7433u   0:net49   =   1.1000 
 +  0:net50   = 149.2654u   0:net54   = 122.4486u   0:net55   =   1.1000 
 +  0:net59   = 122.6740u   0:net60   = 152.8478u   0:net62   =  69.1581u
 +  0:p0      =   3.6509m   0:p1      =   3.6509m   0:p2      =   3.6509m
 +  0:p3      = 145.4819u   0:p4      = 145.4811u   0:p5      =   1.1000 
 +  0:p6      = 145.4811u   0:p7      =   1.1000    0:phi     =   0.     
 +  0:rst     =   0.        0:vdd     =   1.1000    1:net14   =   1.1000 
 +  1:net24   =  97.8695m   2:net14   =   1.1000    2:net24   =  97.8695m
 +  3:net14   =   1.1000    3:net24   =  97.8695m   4:net14   =   1.1000 
 +  4:net24   =  97.8695m   5:net14   =   1.1000    5:net24   =  97.8695m
 +  6:net14   =   1.1000    6:net24   =  97.8695m   7:net14   =   1.1000 
 +  7:net24   =  97.8695m   8:net14   =   1.1000    8:net24   =  97.8695m
 +  9:net14   =   1.1000    9:net24   =  97.8695m  10:net14   =   1.1000 
 + 10:net24   =  97.8695m  11:net16   =  97.8696m  12:net16   =  97.8696m
 + 13:net16   =  97.8696m  14:net16   =  97.9093m  15:net16   =  97.8693m
 + 16:net16   =  97.8695m  21:net20   =   1.1000   21:net21   =   1.1000 
 + 21:net8    = 152.8524u  22:net20   =   1.1000   22:net21   =   1.1000 
 + 22:net8    =   1.1000   23:net20   =   1.1000   23:net21   =   1.1000 
 + 23:net8    = 152.8486u  24:net20   =   1.1000   24:net21   =   1.1000 
 + 24:net8    =   1.1000   25:net20   =   1.1000   25:net21   =   1.1000 
 + 25:net8    = 152.4849u  26:net20   =   1.1000   26:net21   =   1.1000 
 + 26:net8    = 152.4849u  27:net20   = 112.0648u  27:net21   =   1.1000 
 + 27:net8    = 152.8137u  28:net20   =   1.1000   28:net21   =   1.1000 
 + 28:net8    =   1.1000   29:net20   =   1.1000   29:net21   =   1.1000 
 + 29:net8    = 152.8573u  32:net15   = 927.7030m  32:net16   =   1.1000 
 + 33:net15   = 927.7030m  33:net16   =   1.1000   34:net15   = 927.7030m
 + 34:net16   =   1.1000   35:net14   =   1.1000   35:net24   =  95.6234m
 + 36:net010  =   1.1000   36:net09   =   1.1000   36:net22   =  69.1112u
 + 36:net23   =  73.1515u  36:net24   = 250.5772m  36:net25   =   1.1000 
 + 37:net14   =   1.1000   37:net24   =  17.9210u  38:net010  =   1.1000 
 + 38:net09   =  61.8238u  38:net22   =  17.9202u  38:net23   = 849.7529m
 + 38:net24   =   1.1000   38:net25   =   1.1000   39:net14   =   1.1000 
 + 39:net24   =  97.9250m  40:net010  =   1.1000   40:net09   =   1.1000 
 + 40:net22   =  74.6163u  40:net23   =  75.0432u  40:net24   = 250.5768m
 + 40:net25   =   1.1000   41:net14   =   1.1000   41:net24   =  97.8660m
 + 42:net010  =   1.1000   42:net09   =   1.1000   42:net22   =  74.5260u
 + 42:net23   =  75.0479u  42:net24   = 250.5150m  42:net25   =   1.1000 
 + 43:net16   = 100.1835m  44:net16   =  62.0174u  45:net16   =  97.8906m
 + 46:net010  =   1.1000   46:net09   =   1.1000   46:net22   =  72.6731u
 + 46:net23   =  73.1511u  46:net24   = 250.5764m  46:net25   =   1.1000 
 + 47:net010  =   1.1000   47:net09   =   1.1000   47:net22   =  72.5660u
 + 47:net23   =  76.8367u  47:net24   = 250.5526m  47:net25   =   1.1000 
 + 48:net16   =  19.6822u  49:net16   =  61.6371u  50:net16   = 849.6968m
 + 51:net010  =  62.1550u  51:net09   =   1.1000   51:net22   = 849.6944m
 + 51:net23   =  17.8914u  51:net24   =   1.1000   51:net25   =   1.1000 
 + 52:net010  =  62.1562u  52:net09   =   1.1000   52:net22   = 847.4075m
 + 52:net23   =  17.8912u  52:net24   =   1.1000   52:net25   =   1.1000 
 + 53:net16   = 100.1599m  54:net16   =  61.7479u  55:net16   =  97.9250m
 + 56:net010  =   1.1000   56:net09   =   1.1000   56:net22   =  72.7271u
 + 56:net23   =  73.1511u  56:net24   = 250.5764m  56:net25   =   1.1000 
 + 57:net010  =   1.1000   57:net09   =   1.1000   57:net22   =  72.6036u
 + 57:net23   =  76.8347u  57:net24   = 250.5777m  57:net25   =   1.1000 
 + 58:net16   = 847.4368m  59:net16   =  58.1819u  60:net16   = 849.6957m
 + 61:net010  =  62.1572u  61:net09   =   1.1000   61:net22   = 849.6931m
 + 61:net23   =  17.8912u  61:net24   =   1.1000   61:net25   =   1.1000 
 + 62:net010  =   1.1000   62:net09   =  61.8280u  62:net22   =  19.6813u
 + 62:net23   = 849.7517m  62:net24   =   1.1000   62:net25   =   1.1000 
 + 63:net16   =  97.9140m  64:net16   =  61.7480u  65:net16   =  97.8904m
 + 66:net010  =   1.1000   66:net09   =   1.1000   66:net22   =  76.1439u
 + 66:net23   =  76.6302u  66:net24   = 250.5769m  66:net25   =   1.1000 
 + 67:net010  =   1.1000   67:net09   =   1.1000   67:net22   =  76.1725u
 + 67:net23   =  76.6529u  67:net24   = 252.9672m  67:net25   =   1.1000 
 + 68:net16   =  97.9140m  69:net16   =  61.6097u  70:net16   =  95.6231m
 + 71:net010  =   1.1000   71:net09   =   1.1000   71:net22   =  72.6041u
 + 71:net23   =  76.8347u  71:net24   = 250.5777m  71:net25   =   1.1000 
 + 72:net010  =   1.1000   72:net09   =   1.1000   72:net22   =  76.1725u
 + 72:net23   =  76.6529u  72:net24   = 252.9672m  72:net25   =   1.1000 
 + 73:net16   =  56.4435u  74:net16   = 849.7311m  75:net16   =  97.8907m
 + 76:net010  =   1.1000   76:net09   =   1.1000   76:net22   =  74.5609u
 + 76:net23   =  75.0432u  76:net24   = 250.5768m  76:net25   =   1.1000 
 + 77:net010  =  54.6931u  77:net09   =  61.6831u  77:net22   =  76.8173u
 + 77:net23   =  76.2898u  77:net24   =   1.1000   77:net25   = 250.5009m
 + 78:net16   =  17.8954u  79:net16   =  61.6353u  80:net16   = 849.6975m
 + 81:net010  =  62.1537u  81:net09   =   1.1000   81:net22   = 849.6951m
 + 81:net23   =  17.8914u  81:net24   =   1.1000   81:net25   =   1.1000 
 + 82:net010  =  62.1012u  82:net09   =   1.1000   82:net22   = 849.7549m
 + 82:net23   =  17.8913u  82:net24   =   1.1000   82:net25   =   1.1000 
 + 83:net16   =  97.8750m  84:net16   =  61.7479u  85:net16   =  97.9250m
 + 86:net010  =   1.1000   86:net09   =   1.1000   86:net22   =  76.4047u
 + 86:net23   =  76.8343u  86:net24   = 250.5772m  86:net25   =   1.1000 
 + 87:net010  =   1.1000   87:net09   =   1.1000   87:net22   =  76.3112u
 + 87:net23   =  76.8391u  87:net24   = 250.5151m  87:net25   =   1.1000 
 + 89:net15   = 927.7035m  89:net16   =   1.1000   90:net15   = 927.7034m
 + 90:net16   =   1.1000   91:net15   = 927.7046m  91:net16   =   1.1000 
 + 92:net15   = 927.7047m  92:net16   =   1.1000   93:net15   = 927.7046m
 + 93:net16   =   1.1000   94:net15   = 927.7046m  94:net16   =   1.1000 
 + 95:net15   = 927.7046m  95:net16   =   1.1000   96:net16   =  97.9667m
 + 97:net12   =   1.1000   97:net13   =  43.2785u  97:net25   =  82.8518m
 + 97:net26   =   1.1000   97:net27   =  22.0508u  97:net28   = 250.4528m
 + 99:net16   =  97.9667m 100:net12   =   1.1000  100:net13   =  43.2785u
 +100:net25   =  82.8518m 100:net26   =   1.1000  100:net27   =  22.0508u
 +100:net28   = 250.4528m 102:net16   =  97.9076m 103:net12   =   1.1000 
 +103:net13   =  43.2785u 103:net25   =  82.8518m 103:net26   =   1.1000 
 +103:net27   =  22.0508u 103:net28   = 250.4528m 149:net15   = 927.7047m
 +149:net16   =   1.1000  150:net15   = 927.7038m 150:net16   =   1.1000 
 +151:net15   = 927.7046m 151:net16   =   1.1000  152:net15   = 927.7038m
 +152:net16   =   1.1000  153:net15   = 927.7046m 153:net16   =   1.1000 
 +154:net16   =  97.8695m 155:net12   =   1.1000  155:net13   =  43.2785u
 +155:net25   =  82.8518m 155:net26   =   1.1000  155:net27   =  22.0508u
 +155:net28   = 250.4528m 157:net16   =  97.8695m 158:net12   =   1.1000 
 +158:net13   =  43.2785u 158:net25   =  82.8518m 158:net26   =   1.1000 
 +158:net27   =  22.0508u 158:net28   = 250.4528m 160:net16   = 849.7965m
 +161:net12   =   1.1000  161:net13   =  43.2872u 161:net25   =  82.8519m
 +161:net26   =   1.1000  161:net27   =  22.0552u 161:net28   = 250.4594m
 +163:net16   =  97.9076m 164:net12   =   1.1000  164:net13   =  43.2785u
 +164:net25   =  82.8519m 164:net26   =   1.1000  164:net27   =  22.0508u
 +164:net28   = 250.4528m 166:net16   = 849.8032m 167:net12   =   1.1000 
 +167:net13   =  43.2872u 167:net25   =  82.8519m 167:net26   =   1.1000 
 +167:net27   =  22.0552u 167:net28   = 250.4594m 169:net16   = 849.8032m
 +170:net12   =   1.1000  170:net13   =  43.2872u 170:net25   =  82.8519m
 +170:net26   =   1.1000  170:net27   =  22.0552u 170:net28   = 250.4594m
 +172:net16   = 849.8032m 173:net12   =   1.1000  173:net13   =  43.2872u
 +173:net25   =  82.8519m 173:net26   =   1.1000  173:net27   =  22.0552u
 +173:net28   = 250.4594m 178:net16   =  97.9076m 179:net12   =   1.1000 
 +179:net13   =  43.2785u 179:net25   =  82.8519m 179:net26   =   1.1000 
 +179:net27   =  22.0508u 179:net28   = 250.4528m 181:net16   =  97.9667m
 +182:net12   =   1.1000  182:net13   =  43.2785u 182:net25   =  82.8519m
 +182:net26   =   1.1000  182:net27   =  22.0508u 182:net28   = 250.4528m
 +184:net16   =  97.9076m 185:net12   =   1.1000  185:net13   =  43.2785u
 +185:net25   =  82.8519m 185:net26   =   1.1000  185:net27   =  22.0508u
 +185:net28   = 250.4528m 187:net16   = 849.7774m 188:net12   =   1.1000 
 +188:net13   =  43.2872u 188:net25   =  82.8519m 188:net26   =   1.1000 
 +188:net27   =  22.0552u 188:net28   = 250.4594m 190:net16   =  97.9076m
 +191:net12   =   1.1000  191:net13   =  43.2785u 191:net25   =  82.8519m
 +191:net26   =   1.1000  191:net27   =  22.0508u 191:net28   = 250.4528m


          ***** job concluded
 ******  
 * first line is treated as comment

 ****** job statistics summary tnom=  25.000 temp=  25.000 ******
  
 ******  Machine Information  ******
 CPU:
 model name	: Intel(R) Xeon(R) Silver 4216 CPU @ 2.10GHz
 cpu MHz	: 3200.000
 CPU(s)		: 64
  
 OS:
 Linux version 4.18.0-553.16.1.el8_10.x86_64 (mockbuild@x86-64-01.build.eng.rdu2.redhat.com) (gcc version 8.5.0 20210514 (Red Hat 8.5.0-22) (GCC)) #1 SMP Thu Aug 1 04:16:12 EDT 2024

 System loadavg : 7.17 6.92 6.87 8/1338 4076509


  ******  PrimeSim HSPICE Threads Information  ******

  Command Line Threads Count :     1
  Available CPU Count        :    64
  Actual Threads Count       :     1


  ****** Statistics of Ignored Elements ******
  Voltage Sources :       1

  ******  Circuit Statistics  ******
  # nodes       =    3304 # elements   =     731
  # resistors   =       0 # capacitors =       0 # inductors   =       0
  # mutual_inds =       0 # vccs       =       0 # vcvs        =       0
  # cccs        =       0 # ccvs       =       0 # volt_srcs   =       2
  # curr_srcs   =       0 # diodes     =       0 # bjts        =       0
  # jfets       =       0 # mosfets    =     720 # U elements  =       0
  # T elements  =       0 # W elements =       0 # B elements  =       0
  # S elements  =       0 # P elements =       0 # va device   =       0
  # vector_srcs =       9 # N elements =       0


  ******  Runtime Statistics (seconds)  ******

  analysis           time    # points   tot. iter  conv.iter
  op point           3.91           1        2334
  transient          1.28        5001        1529         530 rev=        21
  readin             0.01
  errchk             0.11
  setup              0.18
  output             0.00


           peak memory used        530.60 megabytes
           total cpu time            5.49 seconds
           total elapsed time        5.55 seconds
           job started at     20:10:22 03/31/2025
           job ended   at     20:10:28 03/31/2025

>info:         ***** hspice job concluded
           job total runtime         5.55 seconds


 lic: Release hspice token(s) 
 lic: total license checkout elapse time:        0.04(s)
