Using: /opt/synopsys/hspice/hspice/T-2022.06-3/hspice/linux64/hspice pe.sp
 ****** PrimeSim HSPICE -- T-2022.06-3 linux64 (Aug 04 2022 7739753) ******
  Copyright (c) 1986 - 2025 by Synopsys, Inc. All Rights Reserved.
  This software and the associated documentation are proprietary
  to Synopsys, Inc. This software may only be used in accordance
  with the terms and conditions of a written license agreement with
  Synopsys, Inc. All other use, reproduction, or distribution of
  this software is strictly prohibited.
  Input File: pe.sp                                                             
  Command line options: /opt/synopsys/hspice/hspice/T-2022.06-3/hspice/linux64/hspice pe.sp
  Start time: Mon Apr 28 12:14:59 2025
 lic:  
 lic: FLEXlm: SDK_12.10 
 lic: USER:   cdeclercq            HOSTNAME: vlsicad.ecs.umass.edu 
 lic: HOSTID: 13ac8554             PID:      1251941 
 lic: Using FLEXlm license file: 
 lic: 27020@vlsicad.ecs.umass.edu 
 lic: Checkout 1 hspice 
 lic: License/Maintenance for hspice will expire on 09-sep-2025/2023.12 
 lic: 4(in_use)/50(total) FLOATING license(s) on SERVER 27020@vlsicad.ecs.umass.edu 
 lic:   
 scientific notation:
 a=10**-18  f=10**-15  p=10**-12  n=10**-9  u=10**-6
 m=10**-3   k=10**3    x=10**6    g=10**9 
  **warning** (pe.sp:36) Global net name "gnd" in subckt pin list. The pin will be connected to the local net. Recommend to not use global net names in subckt pin lists.
1****** PrimeSim HSPICE -- T-2022.06-3 linux64 (Aug 04 2022 7739753) ******
 ******  
 * first line is treated as comment

 ****** circuit name directory
 circuit number to circuit name directory
   number circuitname                     definition         multiplier
        0 main circuit
        1 xi8.                            faabs              1.00 
        2 xi7.                            faabs              1.00 
        3 xi6.                            faabs              1.00 
        4 xi5.                            faabs              1.00 
        5 xi4.                            faabs              1.00 
        6 xi3.                            faabs              1.00 
        7 xi2.                            faabs              1.00 
        8 xi1.                            faabs              1.00 
        9 xi9.                            multiplier         1.00 
       10 xi44.                           and                1.00 
       11 xi45.                           and                1.00 
       12 xi46.                           and                1.00 
       13 xi47.                           and                1.00 
       14 xi48.                           and                1.00 
       15 xi49.                           and                1.00 
       16 xi50.                           and                1.00 
       17 xi51.                           and                1.00 
       18 xi35.                           flipflop           1.00 
       19 xi34.                           flipflop           1.00 
       20 xi33.                           flipflop           1.00 
       21 xi32.                           flipflop           1.00 
       22 xi31.                           flipflop           1.00 
       23 xi30.                           flipflop           1.00 
       24 xi29.                           flipflop           1.00 
       25 xi28.                           flipflop           1.00 
       26 xi8.xi0.                        full_adder         1.00 
       27 xi8.xi1.                        nand               1.00 
       28 xi8.xi2.                        flipflop           1.00 
       29 xi8.xi3.                        inv                1.00 
       30 xi7.xi0.                        full_adder         1.00 
       31 xi7.xi1.                        nand               1.00 
       32 xi7.xi2.                        flipflop           1.00 
       33 xi7.xi3.                        inv                1.00 
       34 xi6.xi0.                        full_adder         1.00 
       35 xi6.xi1.                        nand               1.00 
       36 xi6.xi2.                        flipflop           1.00 
       37 xi6.xi3.                        inv                1.00 
       38 xi5.xi0.                        full_adder         1.00 
       39 xi5.xi1.                        nand               1.00 
       40 xi5.xi2.                        flipflop           1.00 
       41 xi5.xi3.                        inv                1.00 
       42 xi4.xi0.                        full_adder         1.00 
       43 xi4.xi1.                        nand               1.00 
       44 xi4.xi2.                        flipflop           1.00 
       45 xi4.xi3.                        inv                1.00 
       46 xi3.xi0.                        full_adder         1.00 
       47 xi3.xi1.                        nand               1.00 
       48 xi3.xi2.                        flipflop           1.00 
       49 xi3.xi3.                        inv                1.00 
       50 xi2.xi0.                        full_adder         1.00 
       51 xi2.xi1.                        nand               1.00 
       52 xi2.xi2.                        flipflop           1.00 
       53 xi2.xi3.                        inv                1.00 
       54 xi1.xi0.                        full_adder         1.00 
       55 xi1.xi1.                        nand               1.00 
       56 xi1.xi2.                        flipflop           1.00 
       57 xi1.xi3.                        inv                1.00 
       58 xi9.xi23.                       and                1.00 
       59 xi9.xi15.                       and                1.00 
       60 xi9.xi14.                       and                1.00 
       61 xi9.xi13.                       and                1.00 
       62 xi9.xi7.                        and                1.00 
       63 xi9.xi5.                        and                1.00 
       64 xi9.xi4.                        and                1.00 
       65 xi9.xi2.                        and                1.00 
       66 xi9.xi1.                        and                1.00 
       67 xi9.xi0.                        and                1.00 
       68 xi9.xi22.                       nand               1.00 
       69 xi9.xi21.                       nand               1.00 
       70 xi9.xi20.                       nand               1.00 
       71 xi9.xi12.                       nand               1.00 
       72 xi9.xi6.                        nand               1.00 
       73 xi9.xi3.                        nand               1.00 
       74 xi9.xi31.                       half_adder         1.00 
       75 xi9.xi32.                       half_adder         1.00 
       76 xi9.xi30.                       half_adder         1.00 
       77 xi9.xi29.                       half_adder         1.00 
       78 xi9.xi28.                       full_adder         1.00 
       79 xi9.xi27.                       full_adder         1.00 
       80 xi9.xi26.                       full_adder         1.00 
       81 xi9.xi19.                       full_adder         1.00 
       82 xi9.xi18.                       full_adder         1.00 
       83 xi9.xi17.                       full_adder         1.00 
       84 xi9.xi11.                       full_adder         1.00 
       85 xi9.xi10.                       full_adder         1.00 
       86 xi9.xi9.                        full_adder         1.00 
       87 xi35.xi0.                       inv                1.00 
       88 xi34.xi0.                       inv                1.00 
       89 xi33.xi0.                       inv                1.00 
       90 xi32.xi0.                       inv                1.00 
       91 xi31.xi0.                       inv                1.00 
       92 xi30.xi0.                       inv                1.00 
       93 xi29.xi0.                       inv                1.00 
       94 xi28.xi0.                       inv                1.00 
       95 xi8.xi0.xi10.                   nand               1.00 
       96 xi8.xi0.xi11.                   nand               1.00 
       97 xi8.xi0.xi9.                    nand               1.00 
       98 xi8.xi0.xi13.                   xor                1.00 
       99 xi8.xi0.xi12.                   xor                1.00 
      100 xi8.xi2.xi0.                    inv                1.00 
      101 xi7.xi0.xi10.                   nand               1.00 
      102 xi7.xi0.xi11.                   nand               1.00 
      103 xi7.xi0.xi9.                    nand               1.00 
      104 xi7.xi0.xi13.                   xor                1.00 
      105 xi7.xi0.xi12.                   xor                1.00 
      106 xi7.xi2.xi0.                    inv                1.00 
      107 xi6.xi0.xi10.                   nand               1.00 
      108 xi6.xi0.xi11.                   nand               1.00 
      109 xi6.xi0.xi9.                    nand               1.00 
      110 xi6.xi0.xi13.                   xor                1.00 
      111 xi6.xi0.xi12.                   xor                1.00 
      112 xi6.xi2.xi0.                    inv                1.00 
      113 xi5.xi0.xi10.                   nand               1.00 
      114 xi5.xi0.xi11.                   nand               1.00 
      115 xi5.xi0.xi9.                    nand               1.00 
      116 xi5.xi0.xi13.                   xor                1.00 
      117 xi5.xi0.xi12.                   xor                1.00 
      118 xi5.xi2.xi0.                    inv                1.00 
      119 xi4.xi0.xi10.                   nand               1.00 
      120 xi4.xi0.xi11.                   nand               1.00 
      121 xi4.xi0.xi9.                    nand               1.00 
      122 xi4.xi0.xi13.                   xor                1.00 
      123 xi4.xi0.xi12.                   xor                1.00 
      124 xi4.xi2.xi0.                    inv                1.00 
      125 xi3.xi0.xi10.                   nand               1.00 
      126 xi3.xi0.xi11.                   nand               1.00 
      127 xi3.xi0.xi9.                    nand               1.00 
      128 xi3.xi0.xi13.                   xor                1.00 
      129 xi3.xi0.xi12.                   xor                1.00 
      130 xi3.xi2.xi0.                    inv                1.00 
      131 xi2.xi0.xi10.                   nand               1.00 
      132 xi2.xi0.xi11.                   nand               1.00 
      133 xi2.xi0.xi9.                    nand               1.00 
      134 xi2.xi0.xi13.                   xor                1.00 
      135 xi2.xi0.xi12.                   xor                1.00 
      136 xi2.xi2.xi0.                    inv                1.00 
      137 xi1.xi0.xi10.                   nand               1.00 
      138 xi1.xi0.xi11.                   nand               1.00 
      139 xi1.xi0.xi9.                    nand               1.00 
      140 xi1.xi0.xi13.                   xor                1.00 
      141 xi1.xi0.xi12.                   xor                1.00 
      142 xi1.xi2.xi0.                    inv                1.00 
      143 xi9.xi31.xi0.                   and                1.00 
      144 xi9.xi31.xi1.                   xor                1.00 
      145 xi9.xi32.xi0.                   and                1.00 
      146 xi9.xi32.xi1.                   xor                1.00 
      147 xi9.xi30.xi0.                   and                1.00 
      148 xi9.xi30.xi1.                   xor                1.00 
      149 xi9.xi29.xi0.                   and                1.00 
      150 xi9.xi29.xi1.                   xor                1.00 
      151 xi9.xi28.xi10.                  nand               1.00 
      152 xi9.xi28.xi11.                  nand               1.00 
      153 xi9.xi28.xi9.                   nand               1.00 
      154 xi9.xi28.xi13.                  xor                1.00 
      155 xi9.xi28.xi12.                  xor                1.00 
      156 xi9.xi27.xi10.                  nand               1.00 
      157 xi9.xi27.xi11.                  nand               1.00 
      158 xi9.xi27.xi9.                   nand               1.00 
      159 xi9.xi27.xi13.                  xor                1.00 
      160 xi9.xi27.xi12.                  xor                1.00 
      161 xi9.xi26.xi10.                  nand               1.00 
      162 xi9.xi26.xi11.                  nand               1.00 
      163 xi9.xi26.xi9.                   nand               1.00 
      164 xi9.xi26.xi13.                  xor                1.00 
      165 xi9.xi26.xi12.                  xor                1.00 
      166 xi9.xi19.xi10.                  nand               1.00 
      167 xi9.xi19.xi11.                  nand               1.00 
      168 xi9.xi19.xi9.                   nand               1.00 
      169 xi9.xi19.xi13.                  xor                1.00 
      170 xi9.xi19.xi12.                  xor                1.00 
      171 xi9.xi18.xi10.                  nand               1.00 
      172 xi9.xi18.xi11.                  nand               1.00 
      173 xi9.xi18.xi9.                   nand               1.00 
      174 xi9.xi18.xi13.                  xor                1.00 
      175 xi9.xi18.xi12.                  xor                1.00 
      176 xi9.xi17.xi10.                  nand               1.00 
      177 xi9.xi17.xi11.                  nand               1.00 
      178 xi9.xi17.xi9.                   nand               1.00 
      179 xi9.xi17.xi13.                  xor                1.00 
      180 xi9.xi17.xi12.                  xor                1.00 
      181 xi9.xi11.xi10.                  nand               1.00 
      182 xi9.xi11.xi11.                  nand               1.00 
      183 xi9.xi11.xi9.                   nand               1.00 
      184 xi9.xi11.xi13.                  xor                1.00 
      185 xi9.xi11.xi12.                  xor                1.00 
      186 xi9.xi10.xi10.                  nand               1.00 
      187 xi9.xi10.xi11.                  nand               1.00 
      188 xi9.xi10.xi9.                   nand               1.00 
      189 xi9.xi10.xi13.                  xor                1.00 
      190 xi9.xi10.xi12.                  xor                1.00 
      191 xi9.xi9.xi10.                   nand               1.00 
      192 xi9.xi9.xi11.                   nand               1.00 
      193 xi9.xi9.xi9.                    nand               1.00 
      194 xi9.xi9.xi13.                   xor                1.00 
      195 xi9.xi9.xi12.                   xor                1.00 
      196 xi8.xi0.xi13.xi2.               inv                1.00 
      197 xi8.xi0.xi13.xi3.               inv                1.00 
      198 xi8.xi0.xi12.xi2.               inv                1.00 
      199 xi8.xi0.xi12.xi3.               inv                1.00 
      200 xi7.xi0.xi13.xi2.               inv                1.00 
      201 xi7.xi0.xi13.xi3.               inv                1.00 
      202 xi7.xi0.xi12.xi2.               inv                1.00 
      203 xi7.xi0.xi12.xi3.               inv                1.00 
      204 xi6.xi0.xi13.xi2.               inv                1.00 
      205 xi6.xi0.xi13.xi3.               inv                1.00 
      206 xi6.xi0.xi12.xi2.               inv                1.00 
      207 xi6.xi0.xi12.xi3.               inv                1.00 
      208 xi5.xi0.xi13.xi2.               inv                1.00 
      209 xi5.xi0.xi13.xi3.               inv                1.00 
      210 xi5.xi0.xi12.xi2.               inv                1.00 
      211 xi5.xi0.xi12.xi3.               inv                1.00 
      212 xi4.xi0.xi13.xi2.               inv                1.00 
      213 xi4.xi0.xi13.xi3.               inv                1.00 
      214 xi4.xi0.xi12.xi2.               inv                1.00 
      215 xi4.xi0.xi12.xi3.               inv                1.00 
      216 xi3.xi0.xi13.xi2.               inv                1.00 
      217 xi3.xi0.xi13.xi3.               inv                1.00 
      218 xi3.xi0.xi12.xi2.               inv                1.00 
      219 xi3.xi0.xi12.xi3.               inv                1.00 
      220 xi2.xi0.xi13.xi2.               inv                1.00 
      221 xi2.xi0.xi13.xi3.               inv                1.00 
      222 xi2.xi0.xi12.xi2.               inv                1.00 
      223 xi2.xi0.xi12.xi3.               inv                1.00 
      224 xi1.xi0.xi13.xi2.               inv                1.00 
      225 xi1.xi0.xi13.xi3.               inv                1.00 
      226 xi1.xi0.xi12.xi2.               inv                1.00 
      227 xi1.xi0.xi12.xi3.               inv                1.00 
      228 xi9.xi31.xi1.xi2.               inv                1.00 
      229 xi9.xi31.xi1.xi3.               inv                1.00 
      230 xi9.xi32.xi1.xi2.               inv                1.00 
      231 xi9.xi32.xi1.xi3.               inv                1.00 
      232 xi9.xi30.xi1.xi2.               inv                1.00 
      233 xi9.xi30.xi1.xi3.               inv                1.00 
      234 xi9.xi29.xi1.xi2.               inv                1.00 
      235 xi9.xi29.xi1.xi3.               inv                1.00 
      236 xi9.xi28.xi13.xi2.              inv                1.00 
      237 xi9.xi28.xi13.xi3.              inv                1.00 
      238 xi9.xi28.xi12.xi2.              inv                1.00 
      239 xi9.xi28.xi12.xi3.              inv                1.00 
      240 xi9.xi27.xi13.xi2.              inv                1.00 
      241 xi9.xi27.xi13.xi3.              inv                1.00 
      242 xi9.xi27.xi12.xi2.              inv                1.00 
      243 xi9.xi27.xi12.xi3.              inv                1.00 
      244 xi9.xi26.xi13.xi2.              inv                1.00 
      245 xi9.xi26.xi13.xi3.              inv                1.00 
      246 xi9.xi26.xi12.xi2.              inv                1.00 
      247 xi9.xi26.xi12.xi3.              inv                1.00 
      248 xi9.xi19.xi13.xi2.              inv                1.00 
      249 xi9.xi19.xi13.xi3.              inv                1.00 
      250 xi9.xi19.xi12.xi2.              inv                1.00 
      251 xi9.xi19.xi12.xi3.              inv                1.00 
      252 xi9.xi18.xi13.xi2.              inv                1.00 
      253 xi9.xi18.xi13.xi3.              inv                1.00 
      254 xi9.xi18.xi12.xi2.              inv                1.00 
      255 xi9.xi18.xi12.xi3.              inv                1.00 
      256 xi9.xi17.xi13.xi2.              inv                1.00 
      257 xi9.xi17.xi13.xi3.              inv                1.00 
      258 xi9.xi17.xi12.xi2.              inv                1.00 
      259 xi9.xi17.xi12.xi3.              inv                1.00 
      260 xi9.xi11.xi13.xi2.              inv                1.00 
      261 xi9.xi11.xi13.xi3.              inv                1.00 
      262 xi9.xi11.xi12.xi2.              inv                1.00 
      263 xi9.xi11.xi12.xi3.              inv                1.00 
      264 xi9.xi10.xi13.xi2.              inv                1.00 
      265 xi9.xi10.xi13.xi3.              inv                1.00 
      266 xi9.xi10.xi12.xi2.              inv                1.00 
      267 xi9.xi10.xi12.xi3.              inv                1.00 
      268 xi9.xi9.xi13.xi2.               inv                1.00 
      269 xi9.xi9.xi13.xi3.               inv                1.00 
      270 xi9.xi9.xi12.xi2.               inv                1.00 
      271 xi9.xi9.xi12.xi3.               inv                1.00 


 circuit parameter definitions
  parameter          =  value 

     0:vdd_val                                                 =   1.1000       
     0:tris                                                    =  50.0000       
     0:tper                                                    = 500.0000       
     0:tfall                                                   =  50.0000       
     0:tpw                                                     = 200.0000       
     0:tdlay                                                   =   0.           




 constants  - tnom         kt           vt           gapsi        ni
            298.15000    4.1163e-21    25.69184m     1.11562    1.2565e+16 
 ******  
 * first line is treated as comment

 ****** mos   model parameters tnom=  25.000 temp=  25.000 ******
 Model file: /opt/cadence/gpdk045/gpdk045_v_6_0/models/hspice/g45n1svt.inc
 Model line:            3
 Model Name: g45n1svt  
 BSIM4 Model (Level 54)
    MOBMOD = 0
    BINUNIT = 1
    PARAMCHK = 1
    CAPMOD = 2
    DIOMOD = 1
    RDSMOD = 0
    TRNQSMOD = 0
    ACNQSMOD = 0
    RBODYMOD = 1
    RGATEMOD = 1
    PERMOD = 1
    GEOMOD = 1
    RGEOMOD = 0
    FNOIMOD = 1
    TNOIMOD = 0
    IGCMOD = 1
    IGBMOD = 1
    STIMOD = 0
    VERSION =      4 
    TOXREF = 1.14e-09 
    TOXE = 1.14e-09 
    TOXP =  1e-09 
    TOXM = 1.14e-09 
    DTOX = 1.4e-10 
    EPSROX =    3.9 
    CDSC =      0 
    CDSCB =      0 
    CDSCD =      0 
    CIT =      0 
    NFACTOR =    2.1 
    XJ = 1.98e-08 
    VSAT = 1.23e+05 
    A0 =      1 
    AGS =      0 
    A1 =      0 
    A2 =      1 
    AT = 3.3e+04 
    KETA =   0.04 
    NSUB =  6e+16 
    NDEP = 3.4e+18 
    NSD =  2e+20 
    NGATE =  3e+20 
    GAMMA1 =      0 
    GAMMA2 =      0 
    VBX =      0 
    VBM =     -3 
    XT = 1.55e-07 
    K1 =    0.4 
    KT1 =  -0.11 
    KT1L =      0 
    KT2 =  0.022 
    K2 =      0 
    K3 =      0 
    K3B =      0 
    LPE0 =      0 
    LPEB =      0 
    DVTP0 =  1e-10 
    DVTP1 =    0.1 
    W0 = 2.5e-06 
    DVT0 =      1 
    DVT1 =      2 
    DVT2 =      0 
    DVT0W =      0 
    DVT1W =      0 
    DVT2W =      0 
    DROUT =    0.5 
    DSUB =    0.1 
    VTH0 = 0.4106 
    EU =   1.67 
    UA =  6e-10 
    UA1 = 4.31e-09 
    UB = 1.2e-18 
    UB1 = 7.61e-18 
    UC =      0 
    UC1 = -5.6e-11 
    U0 =  0.045 
    UTE =   -1.5 
    VOFF =  -0.13 
    VOFFL =      0 
    MINV =   0.05 
    FPROUT =    0.2 
    PDITS =   0.08 
    PDITSD =   0.23 
    PDITSL = 2.3e+06 
    DELTA =   0.01 
    RDSW =    155 
    RDSWMIN =      0 
    RDWMIN =      0 
    RSWMIN =      0 
    RDW =     80 
    RSW =     80 
    PRWG =      0 
    PRWB =      0 
    PRT =      0 
    ETA0 =  0.006 
    ETAB =      0 
    PCLM =   0.02 
    PDIBLC1 =  0.001 
    PDIBLC2 =  0.001 
    PDIBLCB = -0.005 
    PSCBE1 = 8.14e+08 
    PSCBE2 =  1e-07 
    PVAG =  1e-20 
    WR =      1 
    DWG =      0 
    DWB =      0 
    XW =      0 
    XWREF =      0 
    XL = -2e-08 
    XLREF = -2e-08 
    B0 =      0 
    B1 =      0 
    ALPHA0 =  0.074 
    ALPHA1 =  0.005 
    AGIDL = 0.0002 
    BGIDL = 2.1e+09 
    CGIDL = 0.0002 
    PHIN =      0 
    EGIDL =    0.8 
    AIGC =   0.02 
    BIGC = 0.0027 
    CIGC =  0.002 
    AIGSD =   0.02 
    BIGSD = 0.0027 
    CIGSD =  0.002 
    AIGBACC =  0.012 
    BIGBACC = 0.0028 
    CIGBACC =  0.002 
    AIGBINV =  0.014 
    BIGBINV =  0.004 
    CIGBINV =  0.004 
    NIGC =      1 
    NIGBINV =      3 
    NIGBACC =      1 
    NTOX =      1 
    EIGBINV =    1.1 
    PIGCD =      1 
    POXEDGE =      1 
    XRCRG1 =     12 
    TNOIA =    1.5 
    TNOIB =    3.5 
    NTNOI =      1 
    XRCRG2 =      5 
    BETA0 =     30 
    IJTHDFWD =   0.01 
    IJTHSFWD =   0.01 
    IJTHDREV =  0.001 
    IJTHSREV =  0.001 
    XJBVD =      1 
    XJBVS =      1 
    BVD =     10 
    BVS =     10 
    VFB =  -0.55 
    GBMIN =  1e-10 
    RBDB =     15 
    RBPB =      5 
    RBSB =     15 
    RBPS =     15 
    RBPD =     15 
    CGSL = 2.653e-10 
    CGDL = 2.653e-10 
    CKAPPAS =   0.03 
    CKAPPAD =   0.03 
    CF = 1.289e-10 
    CLC =  1e-07 
    CLE =    0.6 
    DWC =  5e-09 
    DLC = 3.75e-09 
    DLCIG = 3.75e-09 
    DWJ =      0 
    VFBCV =     -1 
    ACDE =      1 
    MOIN =     15 
    NOFF =    0.9 
    VOFFCV =   0.02 
    DMCG =      0 
    DMCI =      0 
    DMDG =      0 
    DMCGT =      0 
    XGW =      0 
    XGL =      0 
    RSHG =    0.4 
    NGCON =      1 
    TCJ =  0.001 
    TPB =  0.005 
    TCJSW =  0.001 
    TPBSW =  0.005 
    TCJSWG =  0.001 
    TPBSWG =  0.005 
    SK0 =      0 
    SK1 =      0 
    SK2 =      0 
    SL =  2e-06 
    SW =  2e-06 
    K =      0 
    TNOM =  300.1 
    CGSO = 1.1e-10 
    CGDO = 1.1e-10 
    CGBO = 2.56e-11 
    XPART =      0 
    RSH =      5 
    JSS = 0.0001 
    JSWS =  1e-11 
    JSWGS =  1e-10 
    PBS =      1 
    MJS =    0.5 
    PBSWS =      1 
    MJSWS =   0.33 
    CJS = 0.0005 
    CJSWS =  5e-10 
    NJS =      1 
    PBSWGS =      1 
    MJSWGS =   0.33 
    CJSWGS =  3e-10 
    XTIS =      3 
    JSD = 0.0001 
    JSWD =  1e-11 
    JSWGD =  1e-10 
    PBD =      1 
    MJD =    0.5 
    PBSWD =      1 
    MJSWD =   0.33 
    CJD = 0.0005 
    CJSWD =  5e-10 
    NJD =      1 
    PBSWGD =      1 
    MJSWGD =   0.33 
    CJSWGD =  5e-10 
    XTID =      3 
    LMLT =      1 
    WMLT =      1 
    LINT = 3.75e-09 
    LL =      0 
    LLC =      0 
    LLN =      1 
    LW =      0 
    LWC =      0 
    LWN =      1 
    LWL =      0 
    LWLC =      0 
    LMIN =      0 
    LMAX =      1 
    WINT =  5e-09 
    WL =      0 
    WLC =      0 
    WLN =      1 
    WW =      0 
    WWC =      0 
    WWN =      1 
    WWL =      0 
    WWLC =      0 
    WMIN =      0 
    WMAX =      1 
    NOIA = 6.25e+41 
    NOIB = 3.125e+26 
    NOIC = 8.75e+09 
    EM = 4.1e+07 
    EF =      1 
    AF =      1 
    KF =      0 
    TRS =      0 
    TRD =      0 
 Model file: /opt/cadence/gpdk045/gpdk045_v_6_0/models/hspice/g45p1svt.inc
 Model line:            3
 Model Name: g45p1svt  
 BSIM4 Model (Level 54)
    MOBMOD = 0
    BINUNIT = 1
    PARAMCHK = 1
    CAPMOD = 2
    DIOMOD = 1
    RDSMOD = 0
    TRNQSMOD = 0
    ACNQSMOD = 0
    RBODYMOD = 1
    RGATEMOD = 1
    PERMOD = 1
    GEOMOD = 1
    RGEOMOD = 0
    FNOIMOD = 1
    TNOIMOD = 0
    IGCMOD = 1
    IGBMOD = 1
    STIMOD = 0
    VERSION =      4 
    TOXREF = 1.3e-09 
    TOXE = 1.26e-09 
    TOXP =  1e-09 
    TOXM = 1.26e-09 
    DTOX = 2.6e-10 
    EPSROX =    3.9 
    CDSC =      0 
    CDSCB =      0 
    CDSCD =      0 
    CIT =      0 
    NFACTOR =   2.22 
    XJ = 1.98e-08 
    VSAT = 6.2e+04 
    A0 =      1 
    AGS =  1e-20 
    A1 =      0 
    A2 =      1 
    AT = 3.3e+04 
    KETA = -0.047 
    NSUB =  6e+16 
    NDEP = 2.44e+18 
    NSD =  2e+20 
    NGATE =  2e+20 
    GAMMA1 =      0 
    GAMMA2 =      0 
    VBX =      0 
    VBM =     -3 
    XT = 1.55e-07 
    K1 =    0.4 
    KT1 =  -0.11 
    KT1L =      0 
    KT2 =  0.022 
    K2 =  -0.01 
    K3 =      0 
    K3B =      0 
    LPE0 =      0 
    LPEB =      0 
    DVTP0 =  1e-11 
    DVTP1 =   0.05 
    W0 = 2.5e-06 
    DVT0 =      1 
    DVT1 =      2 
    DVT2 = -0.032 
    DVT0W =      0 
    DVT1W =      0 
    DVT2W =      0 
    DROUT =   0.56 
    DSUB =    0.1 
    VTH0 = -0.3842 
    EU =      1 
    UA =  2e-09 
    UA1 = 4.31e-09 
    UB =  5e-19 
    UB1 = 7.61e-18 
    UC =      0 
    UC1 = -5.6e-11 
    U0 =   0.02 
    UTE =   -1.5 
    VOFF = -0.126 
    VOFFL =      0 
    MINV =   0.05 
    FPROUT =    0.2 
    PDITS =   0.08 
    PDITSD =   0.23 
    PDITSL = 2.3e+06 
    DELTA =   0.01 
    RDSW =    155 
    RDSWMIN =      0 
    RDWMIN =      0 
    RSWMIN =      0 
    RDW =     75 
    RSW =     75 
    PRWG =      0 
    PRWB =      0 
    PRT =      0 
    ETA0 = 0.0055 
    ETAB =      0 
    PCLM =   0.12 
    PDIBLC1 =  0.001 
    PDIBLC2 =  0.001 
    PDIBLCB = 3.4e-08 
    PSCBE1 = 8.14e+08 
    PSCBE2 = 9.58e-07 
    PVAG =  1e-20 
    WR =      1 
    DWG =      0 
    DWB =      0 
    XW =      0 
    XWREF =      0 
    XL = -2e-08 
    XLREF = -2e-08 
    B0 =      0 
    B1 =      0 
    ALPHA0 =  0.074 
    ALPHA1 =  0.005 
    AGIDL = 0.0002 
    BGIDL = 2.1e+09 
    CGIDL = 0.0002 
    PHIN =      0 
    EGIDL =    0.8 
    AIGC = 0.01069 
    BIGC = 0.001261 
    CIGC = 0.0008 
    AIGSD = 0.01069 
    BIGSD = 0.001261 
    CIGSD = 0.0008 
    AIGBACC =  0.012 
    BIGBACC = 0.0028 
    CIGBACC =  0.002 
    AIGBINV =  0.014 
    BIGBINV =  0.004 
    CIGBINV =  0.004 
    NIGC =      1 
    NIGBINV =      3 
    NIGBACC =      1 
    NTOX =      1 
    EIGBINV =    1.1 
    PIGCD =      1 
    POXEDGE =      1 
    XRCRG1 =     12 
    TNOIA =    1.5 
    TNOIB =    3.5 
    NTNOI =      1 
    XRCRG2 =      5 
    BETA0 =     30 
    IJTHDFWD =   0.01 
    IJTHSFWD =   0.01 
    IJTHDREV =  0.001 
    IJTHSREV =  0.001 
    XJBVD =      1 
    XJBVS =      1 
    BVD =     10 
    BVS =     10 
    VFB =   0.55 
    GBMIN =  1e-10 
    RBDB =     15 
    RBPB =      5 
    RBSB =     15 
    RBPS =     15 
    RBPD =     15 
    CGSL = 2.653e-10 
    CGDL = 2.653e-10 
    CKAPPAS =   0.03 
    CKAPPAD =   0.03 
    CF = 1.267e-10 
    CLC =  1e-07 
    CLE =    0.6 
    DWC =  5e-09 
    DLC = 3.75e-09 
    DLCIG = 3.75e-09 
    DWJ =      0 
    VFBCV =     -1 
    ACDE =      1 
    MOIN =     15 
    NOFF =    0.9 
    VOFFCV =   0.02 
    DMCG =      0 
    DMCI =      0 
    DMDG =      0 
    DMCGT =      0 
    XGW =      0 
    XGL =      0 
    RSHG =    0.4 
    NGCON =      1 
    TCJ =  0.001 
    TPB =  0.005 
    TCJSW =  0.001 
    TPBSW =  0.005 
    TCJSWG =  0.001 
    TPBSWG =  0.005 
    SK0 =      0 
    SK1 =      0 
    SK2 =      0 
    SL =  2e-06 
    SW =  2e-06 
    K =      0 
    TNOM =  300.1 
    CGSO = 1.1e-10 
    CGDO = 1.1e-10 
    CGBO = 2.56e-11 
    XPART =      0 
    RSH =      5 
    JSS = 0.0001 
    JSWS =  1e-11 
    JSWGS =  1e-10 
    PBS =      1 
    MJS =    0.5 
    PBSWS =      1 
    MJSWS =   0.33 
    CJS = 0.0005 
    CJSWS =  5e-10 
    NJS =      1 
    PBSWGS =      1 
    MJSWGS =   0.33 
    CJSWGS =  3e-10 
    XTIS =      3 
    JSD = 0.0001 
    JSWD =  1e-11 
    JSWGD =  1e-10 
    PBD =      1 
    MJD =    0.5 
    PBSWD =      1 
    MJSWD =   0.33 
    CJD = 0.0005 
    CJSWD =  5e-10 
    NJD =      1 
    PBSWGD =      1 
    MJSWGD =   0.33 
    CJSWGD =  5e-10 
    XTID =      3 
    LMLT =      1 
    WMLT =      1 
    LINT = 3.75e-09 
    LL =      0 
    LLC =      0 
    LLN =      1 
    LW =      0 
    LWC =      0 
    LWN =      1 
    LWL =      0 
    LWLC =      0 
    LMIN =      0 
    LMAX =      1 
    WINT =  5e-09 
    WL =      0 
    WLC =      0 
    WLN =      1 
    WW =      0 
    WWC =      0 
    WWN =      1 
    WWL =      0 
    WWLC =      0 
    WMIN =      0 
    WMAX =      1 
    NOIA = 6.188e+40 
    NOIB = 1.5e+25 
    NOIC = 8.75e+09 
    EM = 4.1e+07 
    EF =      1 
    AF =      1 
    KF =      0 
    TRS =      0 
    TRD =      0 
  **warning** (pe.sp:30) Both nodes of element vgnd are connected together; Line ignored.
  **info** (pe.sp:23) DC voltage reset to initial transient source value in source 0:vpulse. new dc=0.0000D+00
  **warning** (g45n1svt:xi44.mnm2 (pe.sp:113)) Warning:  Acde = 0.276941 may be too small in BSIM4 model with w=1.2e-07 l=4.5e-08.
 ******  
 * first line is treated as comment

 ****** circuit element summary tnom=  25.000 temp=  25.000 ******


 **** independent sources

     name         node1        node2      dc volt    ac mag    ac phase    type
  vpulse  phi               0                    0.         0.         0.      pulse
             initial value     0.     
             pulsed value.     1.1000 
             delay time...     0.     
             risetime.....    50.0000p
             falltime.....    50.0000p
             width........   200.0000p
             period.......   500.0000p

  vsupply  vdd               0                    1.1000     0.         0.      dc   


 **** mosfets


 **** BSIM4 Model (Level 54)
  
  
                                                                          
 element name       10:mnm2       10:mnm3       10:mnm4       10:mpm0     
 drain               0:net060     10:net14      10:net24      10:net14    
 gate               10:net14       0:rst         0:b3          0:rst      
 source              0:0          10:net24       0:0           0:vdd      
 bulk                0:0           0:0           0:0           0:vdd      
 model               0:g45n1svt    0:g45n1svt    0:g45n1svt    0:g45p1svt 
 w eff             110.0000n     230.0000n     230.0000n     230.0000n    
 l eff              17.5000n      17.5000n      17.5000n      17.5000n    
 rd eff              0.            0.            0.            0.         
 rs eff              0.            0.            0.            0.         
 cdsat              12.7102a      23.4075a      23.4075a      23.4075a    
 cssat              12.7102a      23.4075a      23.4075a      23.4075a    
 capbd             267.8632a     396.0064a     396.0064a     396.0064a    
 capbs             243.9112a     348.1024a     348.1024a     348.1024a    
 temp               25.0000       25.0000       25.0000       25.0000     
 aic                                                                      
 nf                  1.0000        1.0000        1.0000        1.0000     
 min                 0.            0.            0.            0.         
 rbdb               15.0000       15.0000       15.0000       15.0000     
 rbsb               15.0000       15.0000       15.0000       15.0000     
 rbpb                5.0000        5.0000        5.0000        5.0000     
 rbps               15.0000       15.0000       15.0000       15.0000     
 rbpd               15.0000       15.0000       15.0000       15.0000     
 trnqsmod            0.            0.            0.            0.         
 acnqsmod            0.            0.            0.            0.         
 rbodymod            1.0000        1.0000        1.0000        1.0000     
 rgatemod            1.0000        1.0000        1.0000        1.0000     
 geomod              1.0000        1.0000        1.0000        1.0000     
 rgeomod             0.            0.            0.            0.         
 delvto              0.            0.            0.            0.         
 mulu0               1.0000        1.0000        1.0000        1.0000     
 delk1               0.            0.            0.            0.         
 delnfct             0.            0.            0.            0.         
 deltox              0.            0.            0.            0.         
 sa                  0.            0.            0.            0.         
 sb                  0.            0.            0.            0.         
 sd                  0.            0.            0.            0.         
 saeff               0.            0.            0.            0.         
 sbeff               0.            0.            0.            0.         
 m                   1.0000        1.0000        1.0000        1.0000     
 w drawn           120.0000n     240.0000n     240.0000n     240.0000n    
 l drawn            45.0000n      45.0000n      45.0000n      45.0000n    
  
  
                                                                          
 element name       10:mpm1       10:mpm2       11:mnm2       11:mnm3     
 drain              10:net14       0:net060      0:net061     11:net14    
 gate                0:b3         10:net14      11:net14       0:rst      
 source              0:vdd         0:vdd         0:0          11:net24    
 bulk                0:vdd         0:vdd         0:0           0:0        
 model               0:g45p1svt    0:g45p1svt    0:g45n1svt    0:g45n1svt 
 w eff             230.0000n     230.0000n     110.0000n     230.0000n    
 l eff              17.5000n      17.5000n      17.5000n      17.5000n    
 rd eff              0.            0.            0.            0.         
 rs eff              0.            0.            0.            0.         
 cdsat              23.4075a      23.4075a      12.7102a      23.4075a    
 cssat              23.4075a      23.4075a      12.7102a      23.4075a    
 capbd             396.0064a     396.0064a     267.8632a     396.0064a    
 capbs             348.1024a     348.1024a     243.9112a     348.1024a    
 temp               25.0000       25.0000       25.0000       25.0000     
 aic                                                                      
 nf                  1.0000        1.0000        1.0000        1.0000     
 min                 0.            0.            0.            0.         
 rbdb               15.0000       15.0000       15.0000       15.0000     
 rbsb               15.0000       15.0000       15.0000       15.0000     
 rbpb                5.0000        5.0000        5.0000        5.0000     
 rbps               15.0000       15.0000       15.0000       15.0000     
 rbpd               15.0000       15.0000       15.0000       15.0000     
 trnqsmod            0.            0.            0.            0.         
 acnqsmod            0.            0.            0.            0.         
 rbodymod            1.0000        1.0000        1.0000        1.0000     
 rgatemod            1.0000        1.0000        1.0000        1.0000     
 geomod              1.0000        1.0000        1.0000        1.0000     
 rgeomod             0.            0.            0.            0.         
 delvto              0.            0.            0.            0.         
 mulu0               1.0000        1.0000        1.0000        1.0000     
 delk1               0.            0.            0.            0.         
 delnfct             0.            0.            0.            0.         
 deltox              0.            0.            0.            0.         
 sa                  0.            0.            0.            0.         
 sb                  0.            0.            0.            0.         
 sd                  0.            0.            0.            0.         
 saeff               0.            0.            0.            0.         
 sbeff               0.            0.            0.            0.         
 m                   1.0000        1.0000        1.0000        1.0000     
 w drawn           240.0000n     240.0000n     120.0000n     240.0000n    
 l drawn            45.0000n      45.0000n      45.0000n      45.0000n    
  
  
                                                                          
 element name       11:mnm4       11:mpm0       11:mpm1       11:mpm2     
 drain              11:net24      11:net14      11:net14       0:net061   
 gate                0:b2          0:rst         0:b2         11:net14    
 source              0:0           0:vdd         0:vdd         0:vdd      
 bulk                0:0           0:vdd         0:vdd         0:vdd      
 model               0:g45n1svt    0:g45p1svt    0:g45p1svt    0:g45p1svt 
 w eff             230.0000n     230.0000n     230.0000n     230.0000n    
 l eff              17.5000n      17.5000n      17.5000n      17.5000n    
 rd eff              0.            0.            0.            0.         
 rs eff              0.            0.            0.            0.         
 cdsat              23.4075a      23.4075a      23.4075a      23.4075a    
 cssat              23.4075a      23.4075a      23.4075a      23.4075a    
 capbd             396.0064a     396.0064a     396.0064a     396.0064a    
 capbs             348.1024a     348.1024a     348.1024a     348.1024a    
 temp               25.0000       25.0000       25.0000       25.0000     
 aic                                                                      
 nf                  1.0000        1.0000        1.0000        1.0000     
 min                 0.            0.            0.            0.         
 rbdb               15.0000       15.0000       15.0000       15.0000     
 rbsb               15.0000       15.0000       15.0000       15.0000     
 rbpb                5.0000        5.0000        5.0000        5.0000     
 rbps               15.0000       15.0000       15.0000       15.0000     
 rbpd               15.0000       15.0000       15.0000       15.0000     
 trnqsmod            0.            0.            0.            0.         
 acnqsmod            0.            0.            0.            0.         
 rbodymod            1.0000        1.0000        1.0000        1.0000     
 rgatemod            1.0000        1.0000        1.0000        1.0000     
 geomod              1.0000        1.0000        1.0000        1.0000     
 rgeomod             0.            0.            0.            0.         
 delvto              0.            0.            0.            0.         
 mulu0               1.0000        1.0000        1.0000        1.0000     
 delk1               0.            0.            0.            0.         
 delnfct             0.            0.            0.            0.         
 deltox              0.            0.            0.            0.         
 sa                  0.            0.            0.            0.         
 sb                  0.            0.            0.            0.         
 sd                  0.            0.            0.            0.         
 saeff               0.            0.            0.            0.         
 sbeff               0.            0.            0.            0.         
 m                   1.0000        1.0000        1.0000        1.0000     
 w drawn           240.0000n     240.0000n     240.0000n     240.0000n    
 l drawn            45.0000n      45.0000n      45.0000n      45.0000n    
  
  
                                                                          
 element name       12:mnm2       12:mnm3       12:mnm4       12:mpm0     
 drain               0:net062     12:net14      12:net24      12:net14    
 gate               12:net14       0:rst         0:b1          0:rst      
 source              0:0          12:net24       0:0           0:vdd      
 bulk                0:0           0:0           0:0           0:vdd      
 model               0:g45n1svt    0:g45n1svt    0:g45n1svt    0:g45p1svt 
 w eff             110.0000n     230.0000n     230.0000n     230.0000n    
 l eff              17.5000n      17.5000n      17.5000n      17.5000n    
 rd eff              0.            0.            0.            0.         
 rs eff              0.            0.            0.            0.         
 cdsat              12.7102a      23.4075a      23.4075a      23.4075a    
 cssat              12.7102a      23.4075a      23.4075a      23.4075a    
 capbd             267.8632a     396.0064a     396.0064a     396.0064a    
 capbs             243.9112a     348.1024a     348.1024a     348.1024a    
 temp               25.0000       25.0000       25.0000       25.0000     
 aic                                                                      
 nf                  1.0000        1.0000        1.0000        1.0000     
 min                 0.            0.            0.            0.         
 rbdb               15.0000       15.0000       15.0000       15.0000     
 rbsb               15.0000       15.0000       15.0000       15.0000     
 rbpb                5.0000        5.0000        5.0000        5.0000     
 rbps               15.0000       15.0000       15.0000       15.0000     
 rbpd               15.0000       15.0000       15.0000       15.0000     
 trnqsmod            0.            0.            0.            0.         
 acnqsmod            0.            0.            0.            0.         
 rbodymod            1.0000        1.0000        1.0000        1.0000     
 rgatemod            1.0000        1.0000        1.0000        1.0000     
 geomod              1.0000        1.0000        1.0000        1.0000     
 rgeomod             0.            0.            0.            0.         
 delvto              0.            0.            0.            0.         
 mulu0               1.0000        1.0000        1.0000        1.0000     
 delk1               0.            0.            0.            0.         
 delnfct             0.            0.            0.            0.         
 deltox              0.            0.            0.            0.         
 sa                  0.            0.            0.            0.         
 sb                  0.            0.            0.            0.         
 sd                  0.            0.            0.            0.         
 saeff               0.            0.            0.            0.         
 sbeff               0.            0.            0.            0.         
 m                   1.0000        1.0000        1.0000        1.0000     
 w drawn           120.0000n     240.0000n     240.0000n     240.0000n    
 l drawn            45.0000n      45.0000n      45.0000n      45.0000n    
  
  
                                                                          
 element name       12:mpm1       12:mpm2       13:mnm2       13:mnm3     
 drain              12:net14       0:net062      0:net063     13:net14    
 gate                0:b1         12:net14      13:net14       0:rst      
 source              0:vdd         0:vdd         0:0          13:net24    
 bulk                0:vdd         0:vdd         0:0           0:0        
 model               0:g45p1svt    0:g45p1svt    0:g45n1svt    0:g45n1svt 
 w eff             230.0000n     230.0000n     110.0000n     230.0000n    
 l eff              17.5000n      17.5000n      17.5000n      17.5000n    
 rd eff              0.            0.            0.            0.         
 rs eff              0.            0.            0.            0.         
 cdsat              23.4075a      23.4075a      12.7102a      23.4075a    
 cssat              23.4075a      23.4075a      12.7102a      23.4075a    
 capbd             396.0064a     396.0064a     267.8632a     396.0064a    
 capbs             348.1024a     348.1024a     243.9112a     348.1024a    
 temp               25.0000       25.0000       25.0000       25.0000     
 aic                                                                      
 nf                  1.0000        1.0000        1.0000        1.0000     
 min                 0.            0.            0.            0.         
 rbdb               15.0000       15.0000       15.0000       15.0000     
 rbsb               15.0000       15.0000       15.0000       15.0000     
 rbpb                5.0000        5.0000        5.0000        5.0000     
 rbps               15.0000       15.0000       15.0000       15.0000     
 rbpd               15.0000       15.0000       15.0000       15.0000     
 trnqsmod            0.            0.            0.            0.         
 acnqsmod            0.            0.            0.            0.         
 rbodymod            1.0000        1.0000        1.0000        1.0000     
 rgatemod            1.0000        1.0000        1.0000        1.0000     
 geomod              1.0000        1.0000        1.0000        1.0000     
 rgeomod             0.            0.            0.            0.         
 delvto              0.            0.            0.            0.         
 mulu0               1.0000        1.0000        1.0000        1.0000     
 delk1               0.            0.            0.            0.         
 delnfct             0.            0.            0.            0.         
 deltox              0.            0.            0.            0.         
 sa                  0.            0.            0.            0.         
 sb                  0.            0.            0.            0.         
 sd                  0.            0.            0.            0.         
 saeff               0.            0.            0.            0.         
 sbeff               0.            0.            0.            0.         
 m                   1.0000        1.0000        1.0000        1.0000     
 w drawn           240.0000n     240.0000n     120.0000n     240.0000n    
 l drawn            45.0000n      45.0000n      45.0000n      45.0000n    
  
  
                                                                          
 element name       13:mnm4       13:mpm0       13:mpm1       13:mpm2     
 drain              13:net24      13:net14      13:net14       0:net063   
 gate                0:b0          0:rst         0:b0         13:net14    
 source              0:0           0:vdd         0:vdd         0:vdd      
 bulk                0:0           0:vdd         0:vdd         0:vdd      
 model               0:g45n1svt    0:g45p1svt    0:g45p1svt    0:g45p1svt 
 w eff             230.0000n     230.0000n     230.0000n     230.0000n    
 l eff              17.5000n      17.5000n      17.5000n      17.5000n    
 rd eff              0.            0.            0.            0.         
 rs eff              0.            0.            0.            0.         
 cdsat              23.4075a      23.4075a      23.4075a      23.4075a    
 cssat              23.4075a      23.4075a      23.4075a      23.4075a    
 capbd             396.0064a     396.0064a     396.0064a     396.0064a    
 capbs             348.1024a     348.1024a     348.1024a     348.1024a    
 temp               25.0000       25.0000       25.0000       25.0000     
 aic                                                                      
 nf                  1.0000        1.0000        1.0000        1.0000     
 min                 0.            0.            0.            0.         
 rbdb               15.0000       15.0000       15.0000       15.0000     
 rbsb               15.0000       15.0000       15.0000       15.0000     
 rbpb                5.0000        5.0000        5.0000        5.0000     
 rbps               15.0000       15.0000       15.0000       15.0000     
 rbpd               15.0000       15.0000       15.0000       15.0000     
 trnqsmod            0.            0.            0.            0.         
 acnqsmod            0.            0.            0.            0.         
 rbodymod            1.0000        1.0000        1.0000        1.0000     
 rgatemod            1.0000        1.0000        1.0000        1.0000     
 geomod              1.0000        1.0000        1.0000        1.0000     
 rgeomod             0.            0.            0.            0.         
 delvto              0.            0.            0.            0.         
 mulu0               1.0000        1.0000        1.0000        1.0000     
 delk1               0.            0.            0.            0.         
 delnfct             0.            0.            0.            0.         
 deltox              0.            0.            0.            0.         
 sa                  0.            0.            0.            0.         
 sb                  0.            0.            0.            0.         
 sd                  0.            0.            0.            0.         
 saeff               0.            0.            0.            0.         
 sbeff               0.            0.            0.            0.         
 m                   1.0000        1.0000        1.0000        1.0000     
 w drawn           240.0000n     240.0000n     240.0000n     240.0000n    
 l drawn            45.0000n      45.0000n      45.0000n      45.0000n    
  
  
                                                                          
 element name       14:mnm2       14:mnm3       14:mnm4       14:mpm0     
 drain               0:net064     14:net14      14:net24      14:net14    
 gate               14:net14       0:rst         0:a3          0:rst      
 source              0:0          14:net24       0:0           0:vdd      
 bulk                0:0           0:0           0:0           0:vdd      
 model               0:g45n1svt    0:g45n1svt    0:g45n1svt    0:g45p1svt 
 w eff             110.0000n     230.0000n     230.0000n     230.0000n    
 l eff              17.5000n      17.5000n      17.5000n      17.5000n    
 rd eff              0.            0.            0.            0.         
 rs eff              0.            0.            0.            0.         
 cdsat              12.7102a      23.4075a      23.4075a      23.4075a    
 cssat              12.7102a      23.4075a      23.4075a      23.4075a    
 capbd             267.8632a     396.0064a     396.0064a     396.0064a    
 capbs             243.9112a     348.1024a     348.1024a     348.1024a    
 temp               25.0000       25.0000       25.0000       25.0000     
 aic                                                                      
 nf                  1.0000        1.0000        1.0000        1.0000     
 min                 0.            0.            0.            0.         
 rbdb               15.0000       15.0000       15.0000       15.0000     
 rbsb               15.0000       15.0000       15.0000       15.0000     
 rbpb                5.0000        5.0000        5.0000        5.0000     
 rbps               15.0000       15.0000       15.0000       15.0000     
 rbpd               15.0000       15.0000       15.0000       15.0000     
 trnqsmod            0.            0.            0.            0.         
 acnqsmod            0.            0.            0.            0.         
 rbodymod            1.0000        1.0000        1.0000        1.0000     
 rgatemod            1.0000        1.0000        1.0000        1.0000     
 geomod              1.0000        1.0000        1.0000        1.0000     
 rgeomod             0.            0.            0.            0.         
 delvto              0.            0.            0.            0.         
 mulu0               1.0000        1.0000        1.0000        1.0000     
 delk1               0.            0.            0.            0.         
 delnfct             0.            0.            0.            0.         
 deltox              0.            0.            0.            0.         
 sa                  0.            0.            0.            0.         
 sb                  0.            0.            0.            0.         
 sd                  0.            0.            0.            0.         
 saeff               0.            0.            0.            0.         
 sbeff               0.            0.            0.            0.         
 m                   1.0000        1.0000        1.0000        1.0000     
 w drawn           120.0000n     240.0000n     240.0000n     240.0000n    
 l drawn            45.0000n      45.0000n      45.0000n      45.0000n    
  
  
                                                                          
 element name       14:mpm1       14:mpm2       15:mnm2       15:mnm3     
 drain              14:net14       0:net064      0:net065     15:net14    
 gate                0:a3         14:net14      15:net14       0:rst      
 source              0:vdd         0:vdd         0:0          15:net24    
 bulk                0:vdd         0:vdd         0:0           0:0        
 model               0:g45p1svt    0:g45p1svt    0:g45n1svt    0:g45n1svt 
 w eff             230.0000n     230.0000n     110.0000n     230.0000n    
 l eff              17.5000n      17.5000n      17.5000n      17.5000n    
 rd eff              0.            0.            0.            0.         
 rs eff              0.            0.            0.            0.         
 cdsat              23.4075a      23.4075a      12.7102a      23.4075a    
 cssat              23.4075a      23.4075a      12.7102a      23.4075a    
 capbd             396.0064a     396.0064a     267.8632a     396.0064a    
 capbs             348.1024a     348.1024a     243.9112a     348.1024a    
 temp               25.0000       25.0000       25.0000       25.0000     
 aic                                                                      
 nf                  1.0000        1.0000        1.0000        1.0000     
 min                 0.            0.            0.            0.         
 rbdb               15.0000       15.0000       15.0000       15.0000     
 rbsb               15.0000       15.0000       15.0000       15.0000     
 rbpb                5.0000        5.0000        5.0000        5.0000     
 rbps               15.0000       15.0000       15.0000       15.0000     
 rbpd               15.0000       15.0000       15.0000       15.0000     
 trnqsmod            0.            0.            0.            0.         
 acnqsmod            0.            0.            0.            0.         
 rbodymod            1.0000        1.0000        1.0000        1.0000     
 rgatemod            1.0000        1.0000        1.0000        1.0000     
 geomod              1.0000        1.0000        1.0000        1.0000     
 rgeomod             0.            0.            0.            0.         
 delvto              0.            0.            0.            0.         
 mulu0               1.0000        1.0000        1.0000        1.0000     
 delk1               0.            0.            0.            0.         
 delnfct             0.            0.            0.            0.         
 deltox              0.            0.            0.            0.         
 sa                  0.            0.            0.            0.         
 sb                  0.            0.            0.            0.         
 sd                  0.            0.            0.            0.         
 saeff               0.            0.            0.            0.         
 sbeff               0.            0.            0.            0.         
 m                   1.0000        1.0000        1.0000        1.0000     
 w drawn           240.0000n     240.0000n     120.0000n     240.0000n    
 l drawn            45.0000n      45.0000n      45.0000n      45.0000n    
  
  
                                                                          
 element name       15:mnm4       15:mpm0       15:mpm1       15:mpm2     
 drain              15:net24      15:net14      15:net14       0:net065   
 gate                0:a2          0:rst         0:a2         15:net14    
 source              0:0           0:vdd         0:vdd         0:vdd      
 bulk                0:0           0:vdd         0:vdd         0:vdd      
 model               0:g45n1svt    0:g45p1svt    0:g45p1svt    0:g45p1svt 
 w eff             230.0000n     230.0000n     230.0000n     230.0000n    
 l eff              17.5000n      17.5000n      17.5000n      17.5000n    
 rd eff              0.            0.            0.            0.         
 rs eff              0.            0.            0.            0.         
 cdsat              23.4075a      23.4075a      23.4075a      23.4075a    
 cssat              23.4075a      23.4075a      23.4075a      23.4075a    
 capbd             396.0064a     396.0064a     396.0064a     396.0064a    
 capbs             348.1024a     348.1024a     348.1024a     348.1024a    
 temp               25.0000       25.0000       25.0000       25.0000     
 aic                                                                      
 nf                  1.0000        1.0000        1.0000        1.0000     
 min                 0.            0.            0.            0.         
 rbdb               15.0000       15.0000       15.0000       15.0000     
 rbsb               15.0000       15.0000       15.0000       15.0000     
 rbpb                5.0000        5.0000        5.0000        5.0000     
 rbps               15.0000       15.0000       15.0000       15.0000     
 rbpd               15.0000       15.0000       15.0000       15.0000     
 trnqsmod            0.            0.            0.            0.         
 acnqsmod            0.            0.            0.            0.         
 rbodymod            1.0000        1.0000        1.0000        1.0000     
 rgatemod            1.0000        1.0000        1.0000        1.0000     
 geomod              1.0000        1.0000        1.0000        1.0000     
 rgeomod             0.            0.            0.            0.         
 delvto              0.            0.            0.            0.         
 mulu0               1.0000        1.0000        1.0000        1.0000     
 delk1               0.            0.            0.            0.         
 delnfct             0.            0.            0.            0.         
 deltox              0.            0.            0.            0.         
 sa                  0.            0.            0.            0.         
 sb                  0.            0.            0.            0.         
 sd                  0.            0.            0.            0.         
 saeff               0.            0.            0.            0.         
 sbeff               0.            0.            0.            0.         
 m                   1.0000        1.0000        1.0000        1.0000     
 w drawn           240.0000n     240.0000n     240.0000n     240.0000n    
 l drawn            45.0000n      45.0000n      45.0000n      45.0000n    
  
  
                                                                          
 element name       16:mnm2       16:mnm3       16:mnm4       16:mpm0     
 drain               0:net066     16:net14      16:net24      16:net14    
 gate               16:net14       0:rst         0:a1          0:rst      
 source              0:0          16:net24       0:0           0:vdd      
 bulk                0:0           0:0           0:0           0:vdd      
 model               0:g45n1svt    0:g45n1svt    0:g45n1svt    0:g45p1svt 
 w eff             110.0000n     230.0000n     230.0000n     230.0000n    
 l eff              17.5000n      17.5000n      17.5000n      17.5000n    
 rd eff              0.            0.            0.            0.         
 rs eff              0.            0.            0.            0.         
 cdsat              12.7102a      23.4075a      23.4075a      23.4075a    
 cssat              12.7102a      23.4075a      23.4075a      23.4075a    
 capbd             267.8632a     396.0064a     396.0064a     396.0064a    
 capbs             243.9112a     348.1024a     348.1024a     348.1024a    
 temp               25.0000       25.0000       25.0000       25.0000     
 aic                                                                      
 nf                  1.0000        1.0000        1.0000        1.0000     
 min                 0.            0.            0.            0.         
 rbdb               15.0000       15.0000       15.0000       15.0000     
 rbsb               15.0000       15.0000       15.0000       15.0000     
 rbpb                5.0000        5.0000        5.0000        5.0000     
 rbps               15.0000       15.0000       15.0000       15.0000     
 rbpd               15.0000       15.0000       15.0000       15.0000     
 trnqsmod            0.            0.            0.            0.         
 acnqsmod            0.            0.            0.            0.         
 rbodymod            1.0000        1.0000        1.0000        1.0000     
 rgatemod            1.0000        1.0000        1.0000        1.0000     
 geomod              1.0000        1.0000        1.0000        1.0000     
 rgeomod             0.            0.            0.            0.         
 delvto              0.            0.            0.            0.         
 mulu0               1.0000        1.0000        1.0000        1.0000     
 delk1               0.            0.            0.            0.         
 delnfct             0.            0.            0.            0.         
 deltox              0.            0.            0.            0.         
 sa                  0.            0.            0.            0.         
 sb                  0.            0.            0.            0.         
 sd                  0.            0.            0.            0.         
 saeff               0.            0.            0.            0.         
 sbeff               0.            0.            0.            0.         
 m                   1.0000        1.0000        1.0000        1.0000     
 w drawn           120.0000n     240.0000n     240.0000n     240.0000n    
 l drawn            45.0000n      45.0000n      45.0000n      45.0000n    
  
  
                                                                          
 element name       16:mpm1       16:mpm2       17:mnm2       17:mnm3     
 drain              16:net14       0:net066      0:net067     17:net14    
 gate                0:a1         16:net14      17:net14       0:rst      
 source              0:vdd         0:vdd         0:0          17:net24    
 bulk                0:vdd         0:vdd         0:0           0:0        
 model               0:g45p1svt    0:g45p1svt    0:g45n1svt    0:g45n1svt 
 w eff             230.0000n     230.0000n     110.0000n     230.0000n    
 l eff              17.5000n      17.5000n      17.5000n      17.5000n    
 rd eff              0.            0.            0.            0.         
 rs eff              0.            0.            0.            0.         
 cdsat              23.4075a      23.4075a      12.7102a      23.4075a    
 cssat              23.4075a      23.4075a      12.7102a      23.4075a    
 capbd             396.0064a     396.0064a     267.8632a     396.0064a    
 capbs             348.1024a     348.1024a     243.9112a     348.1024a    
 temp               25.0000       25.0000       25.0000       25.0000     
 aic                                                                      
 nf                  1.0000        1.0000        1.0000        1.0000     
 min                 0.            0.            0.            0.         
 rbdb               15.0000       15.0000       15.0000       15.0000     
 rbsb               15.0000       15.0000       15.0000       15.0000     
 rbpb                5.0000        5.0000        5.0000        5.0000     
 rbps               15.0000       15.0000       15.0000       15.0000     
 rbpd               15.0000       15.0000       15.0000       15.0000     
 trnqsmod            0.            0.            0.            0.         
 acnqsmod            0.            0.            0.            0.         
 rbodymod            1.0000        1.0000        1.0000        1.0000     
 rgatemod            1.0000        1.0000        1.0000        1.0000     
 geomod              1.0000        1.0000        1.0000        1.0000     
 rgeomod             0.            0.            0.            0.         
 delvto              0.            0.            0.            0.         
 mulu0               1.0000        1.0000        1.0000        1.0000     
 delk1               0.            0.            0.            0.         
 delnfct             0.            0.            0.            0.         
 deltox              0.            0.            0.            0.         
 sa                  0.            0.            0.            0.         
 sb                  0.            0.            0.            0.         
 sd                  0.            0.            0.            0.         
 saeff               0.            0.            0.            0.         
 sbeff               0.            0.            0.            0.         
 m                   1.0000        1.0000        1.0000        1.0000     
 w drawn           240.0000n     240.0000n     120.0000n     240.0000n    
 l drawn            45.0000n      45.0000n      45.0000n      45.0000n    
  
  
                                                                          
 element name       17:mnm4       17:mpm0       17:mpm1       17:mpm2     
 drain              17:net24      17:net14      17:net14       0:net067   
 gate                0:a0          0:rst         0:a0         17:net14    
 source              0:0           0:vdd         0:vdd         0:vdd      
 bulk                0:0           0:vdd         0:vdd         0:vdd      
 model               0:g45n1svt    0:g45p1svt    0:g45p1svt    0:g45p1svt 
 w eff             230.0000n     230.0000n     230.0000n     230.0000n    
 l eff              17.5000n      17.5000n      17.5000n      17.5000n    
 rd eff              0.            0.            0.            0.         
 rs eff              0.            0.            0.            0.         
 cdsat              23.4075a      23.4075a      23.4075a      23.4075a    
 cssat              23.4075a      23.4075a      23.4075a      23.4075a    
 capbd             396.0064a     396.0064a     396.0064a     396.0064a    
 capbs             348.1024a     348.1024a     348.1024a     348.1024a    
 temp               25.0000       25.0000       25.0000       25.0000     
 aic                                                                      
 nf                  1.0000        1.0000        1.0000        1.0000     
 min                 0.            0.            0.            0.         
 rbdb               15.0000       15.0000       15.0000       15.0000     
 rbsb               15.0000       15.0000       15.0000       15.0000     
 rbpb                5.0000        5.0000        5.0000        5.0000     
 rbps               15.0000       15.0000       15.0000       15.0000     
 rbpd               15.0000       15.0000       15.0000       15.0000     
 trnqsmod            0.            0.            0.            0.         
 acnqsmod            0.            0.            0.            0.         
 rbodymod            1.0000        1.0000        1.0000        1.0000     
 rgatemod            1.0000        1.0000        1.0000        1.0000     
 geomod              1.0000        1.0000        1.0000        1.0000     
 rgeomod             0.            0.            0.            0.         
 delvto              0.            0.            0.            0.         
 mulu0               1.0000        1.0000        1.0000        1.0000     
 delk1               0.            0.            0.            0.         
 delnfct             0.            0.            0.            0.         
 deltox              0.            0.            0.            0.         
 sa                  0.            0.            0.            0.         
 sb                  0.            0.            0.            0.         
 sd                  0.            0.            0.            0.         
 saeff               0.            0.            0.            0.         
 sbeff               0.            0.            0.            0.         
 m                   1.0000        1.0000        1.0000        1.0000     
 w drawn           240.0000n     240.0000n     240.0000n     240.0000n    
 l drawn            45.0000n      45.0000n      45.0000n      45.0000n    
  
  
                                                                          
 element name       18:mpm3       18:mpm2       18:mpm1       18:mpm0     
 drain               0:b3p        18:net13      18:net26      18:net28    
 gate               18:net12       0:phi        18:net13       0:net060   
 source             18:net26      18:net28       0:vdd         0:vdd      
 bulk                0:vdd         0:vdd         0:vdd         0:vdd      
 model               0:g45p1svt    0:g45p1svt    0:g45p1svt    0:g45p1svt 
 w eff             470.0000n     470.0000n     470.0000n     470.0000n    
 l eff              17.5000n      17.5000n      17.5000n      17.5000n    
 rd eff              0.            0.            0.            0.         
 rs eff              0.            0.            0.            0.         
 cdsat              44.8021a      44.8021a      44.8021a      44.8021a    
 cssat              44.8021a      44.8021a      44.8021a      44.8021a    
 capbd             652.2928a     652.2928a     652.2928a     652.2928a    
 capbs             556.4848a     556.4848a     556.4848a     556.4848a    
 temp               25.0000       25.0000       25.0000       25.0000     
 aic                                                                      
 nf                  1.0000        1.0000        1.0000        1.0000     
 min                 0.            0.            0.            0.         
 rbdb               15.0000       15.0000       15.0000       15.0000     
 rbsb               15.0000       15.0000       15.0000       15.0000     
 rbpb                5.0000        5.0000        5.0000        5.0000     
 rbps               15.0000       15.0000       15.0000       15.0000     
 rbpd               15.0000       15.0000       15.0000       15.0000     
 trnqsmod            0.            0.            0.            0.         
 acnqsmod            0.            0.            0.            0.         
 rbodymod            1.0000        1.0000        1.0000        1.0000     
 rgatemod            1.0000        1.0000        1.0000        1.0000     
 geomod              1.0000        1.0000        1.0000        1.0000     
 rgeomod             0.            0.            0.            0.         
 delvto              0.            0.            0.            0.         
 mulu0               1.0000        1.0000        1.0000        1.0000     
 delk1               0.            0.            0.            0.         
 delnfct             0.            0.            0.            0.         
 deltox              0.            0.            0.            0.         
 sa                  0.            0.            0.            0.         
 sb                  0.            0.            0.            0.         
 sd                  0.            0.            0.            0.         
 saeff               0.            0.            0.            0.         
 sbeff               0.            0.            0.            0.         
 m                   1.0000        1.0000        1.0000        1.0000     
 w drawn           480.0000n     480.0000n     480.0000n     480.0000n    
 l drawn            45.0000n      45.0000n      45.0000n      45.0000n    
  
  
                                                                          
 element name       18:mnm3       18:mnm2       18:mnm1       18:mnm0     
 drain              18:net25      18:net27       0:b3p        18:net13    
 gate               18:net13       0:net060      0:phi        18:net12    
 source              0:0           0:0          18:net25      18:net27    
 bulk                0:0           0:0           0:0           0:0        
 model               0:g45n1svt    0:g45n1svt    0:g45n1svt    0:g45n1svt 
 w eff             230.0000n     230.0000n     230.0000n     230.0000n    
 l eff              17.5000n      17.5000n      17.5000n      17.5000n    
 rd eff              0.            0.            0.            0.         
 rs eff              0.            0.            0.            0.         
 cdsat              23.4075a      23.4075a      23.4075a      23.4075a    
 cssat              23.4075a      23.4075a      23.4075a      23.4075a    
 capbd             396.0064a     396.0064a     396.0064a     396.0064a    
 capbs             348.1024a     348.1024a     348.1024a     348.1024a    
 temp               25.0000       25.0000       25.0000       25.0000     
 aic                                                                      
 nf                  1.0000        1.0000        1.0000        1.0000     
 min                 0.            0.            0.            0.         
 rbdb               15.0000       15.0000       15.0000       15.0000     
 rbsb               15.0000       15.0000       15.0000       15.0000     
 rbpb                5.0000        5.0000        5.0000        5.0000     
 rbps               15.0000       15.0000       15.0000       15.0000     
 rbpd               15.0000       15.0000       15.0000       15.0000     
 trnqsmod            0.            0.            0.            0.         
 acnqsmod            0.            0.            0.            0.         
 rbodymod            1.0000        1.0000        1.0000        1.0000     
 rgatemod            1.0000        1.0000        1.0000        1.0000     
 geomod              1.0000        1.0000        1.0000        1.0000     
 rgeomod             0.            0.            0.            0.         
 delvto              0.            0.            0.            0.         
 mulu0               1.0000        1.0000        1.0000        1.0000     
 delk1               0.            0.            0.            0.         
 delnfct             0.            0.            0.            0.         
 deltox              0.            0.            0.            0.         
 sa                  0.            0.            0.            0.         
 sb                  0.            0.            0.            0.         
 sd                  0.            0.            0.            0.         
 saeff               0.            0.            0.            0.         
 sbeff               0.            0.            0.            0.         
 m                   1.0000        1.0000        1.0000        1.0000     
 w drawn           240.0000n     240.0000n     240.0000n     240.0000n    
 l drawn            45.0000n      45.0000n      45.0000n      45.0000n    
  
  
                                                                          
 element name       19:mpm3       19:mpm2       19:mpm1       19:mpm0     
 drain               0:b2p        19:net13      19:net26      19:net28    
 gate               19:net12       0:phi        19:net13       0:net061   
 source             19:net26      19:net28       0:vdd         0:vdd      
 bulk                0:vdd         0:vdd         0:vdd         0:vdd      
 model               0:g45p1svt    0:g45p1svt    0:g45p1svt    0:g45p1svt 
 w eff             470.0000n     470.0000n     470.0000n     470.0000n    
 l eff              17.5000n      17.5000n      17.5000n      17.5000n    
 rd eff              0.            0.            0.            0.         
 rs eff              0.            0.            0.            0.         
 cdsat              44.8021a      44.8021a      44.8021a      44.8021a    
 cssat              44.8021a      44.8021a      44.8021a      44.8021a    
 capbd             652.2928a     652.2928a     652.2928a     652.2928a    
 capbs             556.4848a     556.4848a     556.4848a     556.4848a    
 temp               25.0000       25.0000       25.0000       25.0000     
 aic                                                                      
 nf                  1.0000        1.0000        1.0000        1.0000     
 min                 0.            0.            0.            0.         
 rbdb               15.0000       15.0000       15.0000       15.0000     
 rbsb               15.0000       15.0000       15.0000       15.0000     
 rbpb                5.0000        5.0000        5.0000        5.0000     
 rbps               15.0000       15.0000       15.0000       15.0000     
 rbpd               15.0000       15.0000       15.0000       15.0000     
 trnqsmod            0.            0.            0.            0.         
 acnqsmod            0.            0.            0.            0.         
 rbodymod            1.0000        1.0000        1.0000        1.0000     
 rgatemod            1.0000        1.0000        1.0000        1.0000     
 geomod              1.0000        1.0000        1.0000        1.0000     
 rgeomod             0.            0.            0.            0.         
 delvto              0.            0.            0.            0.         
 mulu0               1.0000        1.0000        1.0000        1.0000     
 delk1               0.            0.            0.            0.         
 delnfct             0.            0.            0.            0.         
 deltox              0.            0.            0.            0.         
[...]
 187:net16        187:mnm1:d       187:mnm0:s                                         
 188:net16        188:mnm1:d       188:mnm0:s                                         
 189:net010       189:mpm2:g       189:mnm0:g       264:mnm0:d       264:mpm0:d       
 189:net09        189:mpm1:g       189:mnm2:g       265:mnm0:d       265:mpm0:d       
 189:net22        189:mnm3:d       189:mnm1:s                                         
 189:net23        189:mnm2:d       189:mnm0:s                                         
 189:net24        189:mpm3:s       189:mpm1:d                                         
 189:net25        189:mpm2:s       189:mpm0:d                                         
 190:net010       190:mpm2:g       190:mnm0:g       266:mnm0:d       266:mpm0:d       
 190:net09        190:mpm1:g       190:mnm2:g       267:mnm0:d       267:mpm0:d       
 190:net22        190:mnm3:d       190:mnm1:s                                         
 190:net23        190:mnm2:d       190:mnm0:s                                         
 190:net24        190:mpm3:s       190:mpm1:d                                         
 190:net25        190:mpm2:s       190:mpm0:d                                         
 191:net16        191:mnm1:d       191:mnm0:s                                         
 192:net16        192:mnm1:d       192:mnm0:s                                         
 193:net16        193:mnm1:d       193:mnm0:s                                         
 194:net010       194:mpm2:g       194:mnm0:g       268:mnm0:d       268:mpm0:d       
 194:net09        194:mpm1:g       194:mnm2:g       269:mnm0:d       269:mpm0:d       
 194:net22        194:mnm3:d       194:mnm1:s                                         
 194:net23        194:mnm2:d       194:mnm0:s                                         
 194:net24        194:mpm3:s       194:mpm1:d                                         
 194:net25        194:mpm2:s       194:mpm0:d                                         
 195:net010       195:mpm2:g       195:mnm0:g       270:mnm0:d       270:mpm0:d       
 195:net09        195:mpm1:g       195:mnm2:g       271:mnm0:d       271:mpm0:d       
 195:net22        195:mnm3:d       195:mnm1:s                                         
 195:net23        195:mnm2:d       195:mnm0:s                                         
 195:net24        195:mpm3:s       195:mpm1:d                                         
 195:net25        195:mpm2:s       195:mpm0:d                                         
 **info** set option symb=1 internally to help for convergence.
 *****************************************************************
 ******  option summary
 ******
 runlvl  = 3         bypass  = 2.0000    
  Opening plot unit= 15
 file=pe.pa0

 **info** dc convergence successful at GMINDC ramping method 
 ******  
 * first line is treated as comment

 ****** operating point information tnom=  25.000 temp=  25.000 ******
 ****** operating point status is voltage   simulation time is     0.     
      node    =voltage        node    =voltage        node    =voltage

 +  0:a0      =   0.        0:a0p     = 246.7277m   0:a1      =   0.     
 +  0:a1p     = 246.7277m   0:a2      =   0.        0:a2p     = 246.7277m
 +  0:a3      =   0.        0:a3p     = 246.7277m   0:b0      =   0.     
 +  0:b0p     = 246.7277m   0:b1      =   0.        0:b1p     = 246.7277m
 +  0:b2      =   0.        0:b2p     = 246.7277m   0:b3      =   0.     
 +  0:b3p     = 246.7277m   0:net060  =  61.8267u   0:net061  =  61.8267u
 +  0:net062  =  61.8267u   0:net063  =  61.8267u   0:net064  =  61.8267u
 +  0:net065  =  61.8267u   0:net066  =  61.8267u   0:net067  =  61.8267u
 +  0:net10   = 152.5351u   0:net11   = 152.5461u   0:net12   = 152.5459u
 +  0:net13   = 152.4842u   0:net14   = 122.3975u   0:net15   = 122.3975u
 +  0:net16   = 122.3975u   0:net17   = 122.3975u   0:net18   = 122.3975u
 +  0:net19   = 122.3975u   0:net20   = 122.3975u   0:net21   = 108.5508u
 +  0:net6    =  61.7476u   0:net7    = 152.4489u   0:net8    = 152.4394u
 +  0:net9    = 152.5228u   0:phi     =   0.        0:rst     =   0.     
 +  0:s0      =   3.6658m   0:s1      =   3.6658m   0:s2      =   3.6658m
 +  0:s3      =   3.6658m   0:s4      =   3.6658m   0:s5      =   3.6658m
 +  0:s6      =   3.6658m   0:s7      =   3.6658m   0:vdd     =   1.1000 
 +  1:net017  = 148.8570u   1:net20   = 927.7046m   1:net21   =   1.1000 
 +  2:net017  = 148.8570u   2:net20   = 927.7047m   2:net21   =   1.1000 
 +  3:net017  = 148.8570u   3:net20   = 927.7047m   3:net21   =   1.1000 
 +  4:net017  = 148.8570u   4:net20   = 927.7047m   4:net21   =   1.1000 
 +  5:net017  = 148.8570u   5:net20   = 927.7047m   5:net21   =   1.1000 
 +  6:net017  = 148.8570u   6:net20   = 927.7047m   6:net21   =   1.1000 
 +  7:net017  = 148.8570u   7:net20   = 927.7047m   7:net21   =   1.1000 
 +  8:net017  = 148.8570u   8:net20   = 927.7047m   8:net21   =   1.1000 
 +  9:net0107 =   1.1000    9:net049  =  69.1581u   9:net050  =  69.2984u
 +  9:net051  =  68.7433u   9:net052  =   1.1000    9:net053  =  69.0242u
 +  9:net054  = 122.3975u   9:net055  = 122.4486u   9:net072  =   1.1000 
 +  9:net073  = 159.8701u   9:net076  = 159.8701u   9:net078  =   1.1000 
 +  9:net079  =  69.2984u   9:net081  =   1.1000    9:net082  =   1.1000 
 +  9:net083  =   1.1000    9:net088  =   1.1000    9:net090  =   1.1000 
 +  9:net091  =   1.1000    9:net092  =   1.1000    9:net24   =  69.2984u
 +  9:net30   =  61.7476u   9:net39   =   1.1000    9:net42   =   1.1000 
 +  9:net45   =  68.7433u   9:net47   =  62.1624u   9:net48   =  68.7433u
 +  9:net49   =   1.1000    9:net50   = 152.4394u   9:net54   = 122.4486u
 +  9:net55   =   1.1000    9:net59   = 122.6740u   9:net60   = 152.8478u
 +  9:net62   =  69.1581u  10:net14   =   1.1000   10:net24   =  97.8695m
 + 11:net14   =   1.1000   11:net24   =  97.8695m  12:net14   =   1.1000 
 + 12:net24   =  97.8695m  13:net14   =   1.1000   13:net24   =  97.8695m
 + 14:net14   =   1.1000   14:net24   =  97.8695m  15:net14   =   1.1000 
 + 15:net24   =  97.8695m  16:net14   =   1.1000   16:net24   =  97.8695m
 + 17:net14   =   1.1000   17:net24   =  97.8695m  18:net12   =   1.1000 
 + 18:net13   =   1.1000   18:net25   =   1.1495u  18:net26   =   1.0097 
 + 18:net27   = 849.7549m  18:net28   =   1.1000   19:net12   =   1.1000 
 + 19:net13   =   1.1000   19:net25   =   1.1495u  19:net26   =   1.0097 
 + 19:net27   = 849.7549m  19:net28   =   1.1000   20:net12   =   1.1000 
 + 20:net13   =   1.1000   20:net25   =   1.1495u  20:net26   =   1.0097 
 + 20:net27   = 849.7549m  20:net28   =   1.1000   21:net12   =   1.1000 
 + 21:net13   =   1.1000   21:net25   =   1.1495u  21:net26   =   1.0097 
 + 21:net27   = 849.7549m  21:net28   =   1.1000   22:net12   =   1.1000 
 + 22:net13   =   1.1000   22:net25   =   1.1495u  22:net26   =   1.0097 
 + 22:net27   = 849.7549m  22:net28   =   1.1000   23:net12   =   1.1000 
 + 23:net13   =   1.1000   23:net25   =   1.1495u  23:net26   =   1.0097 
 + 23:net27   = 849.7549m  23:net28   =   1.1000   24:net12   =   1.1000 
 + 24:net13   =   1.1000   24:net25   =   1.1495u  24:net26   =   1.0097 
 + 24:net27   = 849.7549m  24:net28   =   1.1000   25:net12   =   1.1000 
 + 25:net13   =   1.1000   25:net25   =   1.1495u  25:net26   =   1.0097 
 + 25:net27   = 849.7549m  25:net28   =   1.1000   26:net20   =   1.1000 
 + 26:net21   =   1.1000   26:net8    = 152.8486u  27:net16   =  97.7742m
 + 28:net12   =   1.1000   28:net13   =  43.2785u  28:net25   =  82.8519m
 + 28:net26   =   1.1000   28:net27   =  22.0508u  28:net28   = 250.4528m
 + 30:net20   =   1.1000   30:net21   =   1.1000   30:net8    = 152.8486u
 + 31:net16   =  97.7742m  32:net12   =   1.1000   32:net13   =  43.2785u
 + 32:net25   =  82.8519m  32:net26   =   1.1000   32:net27   =  22.0508u
 + 32:net28   = 250.4528m  34:net20   =   1.1000   34:net21   =   1.1000 
 + 34:net8    = 152.8486u  35:net16   =  97.7742m  36:net12   =   1.1000 
 + 36:net13   =  43.2785u  36:net25   =  82.8519m  36:net26   =   1.1000 
 + 36:net27   =  22.0508u  36:net28   = 250.4528m  38:net20   =   1.1000 
 + 38:net21   =   1.1000   38:net8    = 152.8486u  39:net16   =  97.7742m
 + 40:net12   =   1.1000   40:net13   =  43.2785u  40:net25   =  82.8519m
 + 40:net26   =   1.1000   40:net27   =  22.0508u  40:net28   = 250.4528m
 + 42:net20   =   1.1000   42:net21   =   1.1000   42:net8    = 152.8486u
 + 43:net16   =  97.7742m  44:net12   =   1.1000   44:net13   =  43.2785u
 + 44:net25   =  82.8519m  44:net26   =   1.1000   44:net27   =  22.0508u
 + 44:net28   = 250.4528m  46:net20   =   1.1000   46:net21   =   1.1000 
 + 46:net8    = 152.8486u  47:net16   =  97.7742m  48:net12   =   1.1000 
 + 48:net13   =  43.2785u  48:net25   =  82.8519m  48:net26   =   1.1000 
 + 48:net27   =  22.0508u  48:net28   = 250.4528m  50:net20   =   1.1000 
 + 50:net21   =   1.1000   50:net8    = 152.8486u  51:net16   =  97.7742m
 + 52:net12   =   1.1000   52:net13   =  43.2785u  52:net25   =  82.8519m
 + 52:net26   =   1.1000   52:net27   =  22.0508u  52:net28   = 250.4528m
 + 54:net20   =   1.1000   54:net21   =   1.1000   54:net8    = 152.8580u
 + 55:net16   =  97.7742m  56:net12   =   1.1000   56:net13   =  43.2785u
 + 56:net25   =  82.8519m  56:net26   =   1.1000   56:net27   =  22.0508u
 + 56:net28   = 250.4528m  58:net14   =   1.1000   58:net24   =  97.8695m
 + 59:net14   =   1.1000   59:net24   =  97.8695m  60:net14   =   1.1000 
 + 60:net24   =  97.8695m  61:net14   =   1.1000   61:net24   =  97.8695m
 + 62:net14   =   1.1000   62:net24   =  97.8695m  63:net14   =   1.1000 
 + 63:net24   =  97.8695m  64:net14   =   1.1000   64:net24   =  97.8695m
 + 65:net14   =   1.1000   65:net24   =  97.8695m  66:net14   =   1.1000 
 + 66:net24   =  97.8695m  67:net14   =   1.1000   67:net24   =  97.8695m
 + 68:net16   =  97.8695m  69:net16   =  97.8695m  70:net16   =  97.8693m
 + 71:net16   =  97.8693m  72:net16   =  97.8693m  73:net16   =  97.8695m
 + 78:net20   =   1.1000   78:net21   = 112.4350u  78:net8    =   1.1000 
 + 79:net20   =   1.1000   79:net21   = 112.4351u  79:net8    =   1.1000 
 + 80:net20   =   1.1000   80:net21   = 112.4167u  80:net8    =   1.1000 
 + 81:net20   = 112.0882u  81:net21   =   1.1000   81:net8    = 152.8529u
 + 82:net20   =   1.1000   82:net21   =   1.1000   82:net8    = 152.8478u
 + 83:net20   =   1.1000   83:net21   =   1.1000   83:net8    =   1.1000 
 + 84:net20   = 112.0648u  84:net21   =   1.1000   84:net8    = 152.8137u
 + 85:net20   =   1.1000   85:net21   =   1.1000   85:net8    =   1.1000 
 + 86:net20   =   1.1000   86:net21   =   1.1000   86:net8    = 152.8573u
 + 95:net16   = 100.1599m  96:net16   =  54.6865u  97:net16   =  97.8906m
 + 98:net010  =   1.1000   98:net09   =   1.1000   98:net22   =  74.3573u
 + 98:net23   =  74.8390u  98:net24   = 250.5768m  98:net25   =   1.1000 
 + 99:net010  =   1.1000   99:net09   =   1.1000   99:net22   =  72.6037u
 + 99:net23   =  76.8347u  99:net24   = 250.5777m  99:net25   =   1.1000 
 +101:net16   = 100.1598m 102:net16   =  61.6097u 103:net16   =  97.8906m
 +104:net010  =   1.1000  104:net09   =   1.1000  104:net22   =  74.3573u
 +104:net23   =  74.8390u 104:net24   = 250.5768m 104:net25   =   1.1000 
 +105:net010  =   1.1000  105:net09   =   1.1000  105:net22   =  72.6038u
 +105:net23   =  76.8347u 105:net24   = 250.5778m 105:net25   =   1.1000 
 +107:net16   = 100.1598m 108:net16   =  61.6097u 109:net16   =  97.8906m
 +110:net010  =   1.1000  110:net09   =   1.1000  110:net22   =  74.3573u
 +110:net23   =  74.8390u 110:net24   = 250.5768m 110:net25   =   1.1000 
 +111:net010  =   1.1000  111:net09   =   1.1000  111:net22   =  72.6038u
 +111:net23   =  76.8347u 111:net24   = 250.5778m 111:net25   =   1.1000 
 +113:net16   = 100.1598m 114:net16   =  61.6097u 115:net16   =  97.8906m
 +116:net010  =   1.1000  116:net09   =   1.1000  116:net22   =  74.3573u
 +116:net23   =  74.8390u 116:net24   = 250.5768m 116:net25   =   1.1000 
 +117:net010  =   1.1000  117:net09   =   1.1000  117:net22   =  72.6038u
 +117:net23   =  76.8347u 117:net24   = 250.5778m 117:net25   =   1.1000 
 +119:net16   = 100.1598m 120:net16   =  61.6097u 121:net16   =  97.8906m
 +122:net010  =   1.1000  122:net09   =   1.1000  122:net22   =  74.3573u
 +122:net23   =  74.8390u 122:net24   = 250.5768m 122:net25   =   1.1000 
 +123:net010  =   1.1000  123:net09   =   1.1000  123:net22   =  72.6037u
 +123:net23   =  76.8347u 123:net24   = 250.5778m 123:net25   =   1.1000 
 +125:net16   = 100.1599m 126:net16   =  61.6097u 127:net16   =  97.8906m
 +128:net010  =   1.1000  128:net09   =   1.1000  128:net22   =  74.3573u
 +128:net23   =  74.8390u 128:net24   = 250.5768m 128:net25   =   1.1000 
 +129:net010  =   1.1000  129:net09   =   1.1000  129:net22   =  72.6037u
 +129:net23   =  76.8347u 129:net24   = 250.5777m 129:net25   =   1.1000 
 +131:net16   = 100.1599m 132:net16   =  61.6097u 133:net16   =  97.8906m
 +134:net010  =   1.1000  134:net09   =   1.1000  134:net22   =  74.3573u
 +134:net23   =  74.8390u 134:net24   = 250.5768m 134:net25   =   1.1000 
 +135:net010  =   1.1000  135:net09   =   1.1000  135:net22   =  72.6037u
 +135:net23   =  76.8347u 135:net24   = 250.5777m 135:net25   =   1.1000 
 +137:net16   = 100.2180m 138:net16   =  61.6097u 139:net16   =  97.9690m
 +140:net010  =   1.1000  140:net09   =   1.1000  140:net22   =  74.4831u
 +140:net23   =  74.8390u 140:net24   = 250.5768m 140:net25   =   1.1000 
 +141:net010  =   1.1000  141:net09   =   1.1000  141:net22   =  72.5111u
 +141:net23   =  76.8395u 141:net24   = 250.5159m 141:net25   =   1.1000 
 +143:net14   = 112.1835u 143:net24   =  56.5025u 144:net010  =  54.7502u
 +144:net09   =  61.6891u 144:net22   =  76.6715u 144:net23   =  76.1448u
 +144:net24   =   1.1000  144:net25   = 250.5035m 145:net14   = 112.1604u
 +145:net24   =  56.4910u 146:net010  =  54.7326u 146:net09   =  61.6831u
 +146:net22   =  76.6522u 146:net23   =  76.1255u 146:net24   =   1.1000 
 +146:net25   = 250.5009m 147:net14   =   1.1000  147:net24   =  97.9250m
 +148:net010  =   1.1000  148:net09   =   1.1000  148:net22   =  76.2008u
 +148:net23   =  76.6302u 148:net24   = 250.5772m 148:net25   =   1.1000 
 +149:net14   =   1.1000  149:net24   =  97.8660m 150:net010  =   1.1000 
 +150:net09   =   1.1000  150:net22   =  76.1085u 150:net23   =  76.6349u
 +150:net24   = 250.5154m 150:net25   =   1.1000  151:net16   =  17.8954u
 +152:net16   =  17.9156u 153:net16   =  56.6284u 154:net010  =  54.7502u
 +154:net09   =  61.7282u 154:net22   =  76.6832u 154:net23   =  76.1563u
 +154:net24   =   1.1000  154:net25   = 250.5206m 155:net010  =  62.1169u
 +155:net09   =   1.1000  155:net22   = 849.7468m 155:net23   =  17.8910u
 +155:net24   =   1.1000  155:net25   =   1.1000  156:net16   = 849.6991m
 +157:net16   =  17.9156u 158:net16   =  56.6285u 159:net010  =  54.7503u
 +159:net09   =  61.7282u 159:net22   =  76.6833u 159:net23   =  76.1564u
 +159:net24   =   1.1000  159:net25   = 250.5206m 160:net010  =   1.1000 
 +160:net09   =  61.8280u 160:net22   =  17.9373u 160:net23   = 849.7523m
 +160:net24   =   1.1000  160:net25   =   1.1000  161:net16   = 849.6991m
 +162:net16   =  17.9156u 163:net16   =  56.6192u 164:net010  =  54.7503u
 +164:net09   =  61.7095u 164:net22   =  76.6777u 164:net23   =  76.1509u
 +164:net24   =   1.1000  164:net25   = 250.5125m 165:net010  =   1.1000 
 +165:net09   =  61.8280u 165:net22   =  17.9373u 165:net23   = 849.7523m
 +165:net24   =   1.1000  165:net25   =   1.1000  166:net16   =  56.4552u
 +167:net16   = 849.7308m 168:net16   =  97.8907m 169:net010  =   1.1000 
 +169:net09   =   1.1000  169:net22   =  79.8506u 169:net23   =  80.3454u
 +169:net24   = 250.5780m 169:net25   =   1.1000  170:net010  =  54.7110u
 +170:net09   =  61.6891u 170:net22   =  76.8368u 170:net23   =  76.3094u
 +170:net24   =   1.1000  170:net25   = 250.5035m 171:net16   =  97.8169m
 +172:net16   =  61.6097u 173:net16   =  97.8906m 174:net010  =   1.1000 
 +174:net09   =   1.1000  174:net22   =  79.8506u 174:net23   =  80.3454u
 +174:net24   = 250.5780m 174:net25   =   1.1000  175:net010  =   1.1000 
 +175:net09   =   1.1000  175:net22   =  76.4038u 175:net23   =  76.8344u
 +175:net24   = 250.5769m 175:net25   =   1.1000  176:net16   =  17.8955u
 +177:net16   =  61.6353u 178:net16   = 849.7321m 179:net010  =  62.1536u
 +179:net09   =   1.1000  179:net22   = 849.7291m 179:net23   =  17.8910u
 +179:net24   =   1.1000  179:net25   =   1.1000  180:net010  =  62.1563u
 +180:net09   =   1.1000  180:net22   = 849.7281m 180:net23   =  17.8913u
 +180:net24   =   1.1000  180:net25   =   1.1000  181:net16   =  56.4435u
 +182:net16   = 849.7306m 183:net16   =  97.8907m 184:net010  =   1.1000 
 +184:net09   =   1.1000  184:net22   =  76.1442u 184:net23   =  76.6302u
 +184:net24   = 250.5772m 184:net25   =   1.1000  185:net010  =  54.6931u
 +185:net09   =  61.6831u 185:net22   =  76.8173u 185:net23   =  76.2898u
 +185:net24   =   1.1000  185:net25   = 250.5009m 186:net16   =  17.8954u
 +187:net16   =  61.6353u 188:net16   = 849.6975m 189:net010  =  62.1536u
 +189:net09   =   1.1000  189:net22   = 849.6948m 189:net23   =  17.8912u
 +189:net24   =   1.1000  189:net25   =   1.1000  190:net010  =  62.1012u
 +190:net09   =   1.1000  190:net22   = 849.7549m 190:net23   =  17.8913u
 +190:net24   =   1.1000  190:net25   =   1.1000  191:net16   =  97.8750m
 +192:net16   =  61.7479u 193:net16   =  97.9250m 194:net010  =   1.1000 
 +194:net09   =   1.1000  194:net22   =  76.4047u 194:net23   =  76.8343u
 +194:net24   = 250.5772m 194:net25   =   1.1000  195:net010  =   1.1000 
 +195:net09   =   1.1000  195:net22   =  76.3112u 195:net23   =  76.8391u
 +195:net24   = 250.5151m 195:net25   =   1.1000 


          ***** job concluded
 ******  
 * first line is treated as comment

 ****** job statistics summary tnom=  25.000 temp=  25.000 ******
  
 ******  Machine Information  ******
 CPU:
 model name	: Intel(R) Xeon(R) Silver 4216 CPU @ 2.10GHz
 cpu MHz	: 3200.000
 CPU(s)		: 64
  
 OS:
 Linux version 4.18.0-553.16.1.el8_10.x86_64 (mockbuild@x86-64-01.build.eng.rdu2.redhat.com) (gcc version 8.5.0 20210514 (Red Hat 8.5.0-22) (GCC)) #1 SMP Thu Aug 1 04:16:12 EDT 2024

 System loadavg : 9.10 9.07 9.11 10/1327 1251945


  ******  PrimeSim HSPICE Threads Information  ******

  Command Line Threads Count :     1
  Available CPU Count        :    64
  Actual Threads Count       :     1


  ****** Statistics of Ignored Elements ******
  Voltage Sources :       1

  ******  Circuit Statistics  ******
  # nodes       =    4690 # elements   =    1035
  # resistors   =       0 # capacitors =       0 # inductors   =       0
  # mutual_inds =       0 # vccs       =       0 # vcvs        =       0
  # cccs        =       0 # ccvs       =       0 # volt_srcs   =       2
  # curr_srcs   =       0 # diodes     =       0 # bjts        =       0
  # jfets       =       0 # mosfets    =    1024 # U elements  =       0
  # T elements  =       0 # W elements =       0 # B elements  =       0
  # S elements  =       0 # P elements =       0 # va device   =       0
  # vector_srcs =       9 # N elements =       0


  ******  Runtime Statistics (seconds)  ******

  analysis           time    # points   tot. iter  conv.iter
  op point           0.55           1         246
  transient          2.29        5001        2103         695 rev=        19
  readin             0.01
  errchk             0.15
  setup              0.24
  output             0.00


           peak memory used        535.83 megabytes
           total cpu time            3.24 seconds
           total elapsed time        3.31 seconds
           job started at     12:14:59 04/28/2025
           job ended   at     12:15:02 04/28/2025

>info:         ***** hspice job concluded
           job total runtime         3.31 seconds


 lic: Release hspice token(s) 
 lic: total license checkout elapse time:        0.05(s)
